geometry optimzed in LAMMPS
_audit_creation_date              2020-12-01 
_audit_creation_method            'lammps2cif' 
_symmetry_space_group_name_H-M    'P1' 
_symmetry_Int_Tables_number       1 
_symmetry_cell_setting            triclinic 
loop_ 
_symmetry_equiv_pos_as_xyz 
  x,y,z 
_cell_length_a                    39.07285447 
_cell_length_b                    38.86638533407584 
_cell_length_c                    38.999676567898454 
_cell_angle_alpha                 89.74650524230682 
_cell_angle_beta                  89.85022962341118 
_cell_angle_gamma                 89.39769072314257 
loop_ 
_atom_site_label 
_atom_site_type_symbol 
_atom_site_fract_x 
_atom_site_fract_y 
_atom_site_fract_z 
_atom_site_charge 
In1        In  0.65317189  0.19272929  0.50031173     1.36900
C2          C  0.60721528  0.19162728  0.55057713     0.77500
O3          O  0.69059459  0.22660341  0.52808282    -0.61000
O4          O  0.68492590  0.23310917  0.47438496    -0.51900
C5          C  0.69113815  0.13527963  0.50256931     0.70100
O6          O  0.67378918  0.14604030  0.52763817    -0.46800
C7          C  0.60967380  0.19660720  0.44775147     0.74800
O8          O  0.61181115  0.16714420  0.53002957    -0.58600
O9          O  0.61455880  0.22144891  0.46775652    -0.48700
O10         O  0.62625358  0.21720965  0.54567892    -0.55000
C11         C  0.69957740  0.24258101  0.50141312     0.85000
O12         O  0.69034040  0.15487586  0.47674955    -0.56900
O13         O  0.62765457  0.17027908  0.45397168    -0.60200
In14       In  0.53122915  0.18575808  0.62351689     1.36900
C15         C  0.47968577  0.18903976  0.57946989     0.77500
O16         O  0.50353115  0.22515342  0.65496230    -0.61000
O17         O  0.55688803  0.21787603  0.66349643    -0.51900
C18         C  0.53394670  0.12789101  0.66015133     0.70100
O19         O  0.50851600  0.14808614  0.66076730    -0.46800
C20         C  0.58115190  0.18998327  0.57745238     0.74800
O21         O  0.48829067  0.16161694  0.59455596    -0.58600
O22         O  0.57466403  0.21424521  0.59790920    -0.48700
O23         O  0.49639083  0.21515496  0.58798230    -0.55000
C24         C  0.52975058  0.23393190  0.67131625     0.85000
O25         O  0.55846933  0.13811191  0.64187290    -0.56900
O26         O  0.56288849  0.16380195  0.58128583    -0.60200
In27       In  0.41149405  0.19062238  0.49920733     1.36900
C28         C  0.45234422  0.19934089  0.44528676     0.77500
O29         O  0.37541948  0.22617353  0.47165751    -0.61000
O30         O  0.37525408  0.22620030  0.52625836    -0.51900
C31         C  0.37836586  0.13124595  0.50031683     0.70100
O32         O  0.40935957  0.13363147  0.49154781    -0.46800
C33         C  0.45377005  0.18998497  0.55259076     0.74800
O34         O  0.42831267  0.17801344  0.44522495    -0.58600
O35         O  0.44447315  0.21738560  0.53789074    -0.48700
O36         O  0.45430943  0.21719144  0.47199168    -0.55000
C37         C  0.36288659  0.23834379  0.49888683     0.85000
O38         O  0.36443151  0.15938230  0.50874181    -0.56900
O39         O  0.44038127  0.16315051  0.54107196    -0.60200
In40       In  0.53173186  0.19661187  0.37637600     1.36900
C41         C  0.58381227  0.19750453  0.42057692     0.77500
O42         O  0.55838502  0.23402895  0.34159590    -0.61000
O43         O  0.50425871  0.23115459  0.33869290    -0.51900
C44         C  0.53286800  0.13526328  0.34600254     0.70100
O45         O  0.52302086  0.13997766  0.37642490    -0.46800
C46         C  0.47815450  0.20116366  0.41819853     0.74800
O47         O  0.57776559  0.17203352  0.40179150    -0.58600
O48         O  0.50377509  0.22027703  0.42063486    -0.48700
O49         O  0.56466707  0.22319341  0.41532033    -0.55000
C50         C  0.53125010  0.24488636  0.32772802     0.85000
O51         O  0.54281387  0.16228870  0.33105615    -0.56900
O52         O  0.47826589  0.18178577  0.39240961    -0.60200
In53       In  0.27762219  0.55681947  0.50308379     1.36900
C54         C  0.28270136  0.51526478  0.44945273     0.77500
O55         O  0.31568146  0.59129267  0.47749875    -0.61000
O56         O  0.31095263  0.59402435  0.53166149    -0.51900
C57         C  0.21962529  0.59322790  0.50667555     0.70100
O58         O  0.23838316  0.59259624  0.48038307    -0.46800
C59         C  0.28008708  0.50802717  0.55081446     0.74800
O60         O  0.25509004  0.52984403  0.45800100    -0.58600
O61         O  0.30351354  0.52985516  0.54753359    -0.48700
O62         O  0.30824789  0.52304156  0.46739342    -0.55000
C63         C  0.32571637  0.60476955  0.50496145     0.85000
O64         O  0.23124298  0.57622720  0.53170043    -0.56900
O65         O  0.25579536  0.51126421  0.52992041    -0.60200
In66       In  0.27870566  0.43139390  0.62367200     1.36900
C67         C  0.28366950  0.37954447  0.57993022     0.77500
O68         O  0.25629455  0.45983474  0.57933177    -0.61000
O69         O  0.30414696  0.47684082  0.59837177    -0.51900
C70         C  0.22030957  0.43692776  0.65888152     0.70100
O71         O  0.23838386  0.40985819  0.65877306    -0.46800
C72         C  0.32668208  0.43047117  0.67193444     0.74800
O73         O  0.25705074  0.38530164  0.59734886    -0.58600
O74         O  0.31180728  0.45776349  0.66235622    -0.48700
O75         O  0.30839955  0.39907745  0.58621469    -0.55000
C76         C  0.28038957  0.48092296  0.57683025     0.85000
O77         O  0.23300635  0.46139975  0.64209771    -0.56900
O78         O  0.31697074  0.40363445  0.65702542    -0.60200
In79       In  0.28647384  0.31175440  0.49921357     1.36900
C80         C  0.28505169  0.35372652  0.55283936     0.77500
O81         O  0.32319848  0.27626092  0.52603359    -0.61000
O82         O  0.32318962  0.27658348  0.47163957    -0.51900
C83         C  0.22637008  0.28005112  0.49824946     0.70100
O84         O  0.23189048  0.30799761  0.48276565    -0.46800
C85         C  0.29322584  0.35586946  0.44750487     0.74800
O86         O  0.25903565  0.33766966  0.54304262    -0.58600
O87         O  0.30711755  0.36006089  0.47621870    -0.48700
O88         O  0.31195490  0.34735016  0.53613137    -0.55000
C89         C  0.33580239  0.26439130  0.49881155     0.85000
O90         O  0.25198181  0.26816734  0.51417336    -0.56900
O91         O  0.27752709  0.32791602  0.44424037    -0.60200
In92       In  0.28495458  0.43649426  0.37944012     1.36900
C93         C  0.29295845  0.38299928  0.42144216     0.77500
O94         O  0.32267510  0.41037990  0.34419540    -0.61000
O95         O  0.31891782  0.46489543  0.34270538    -0.51900
C96         C  0.22402281  0.43603902  0.34852194     0.70100
O97         O  0.25069485  0.44722663  0.33426013    -0.46800
C98         C  0.28421755  0.48939647  0.42240247     0.74800
O99         O  0.27753947  0.38051607  0.39322991    -0.58600
O100        O  0.31143906  0.47381458  0.41423446    -0.48700
O101        O  0.30607963  0.41185053  0.42688952    -0.55000
C102        C  0.33284057  0.43807221  0.33090110     0.85000
O103        O  0.22879516  0.42502465  0.37861182    -0.56900
O104        O  0.25784226  0.47937001  0.40708897    -0.60200
In105      In  0.52654766  0.56395603  0.25628796     1.36900
C106        C  0.57653620  0.51742745  0.25713617     0.77500
O107        O  0.55198454  0.60320682  0.28982513    -0.61000
O108        O  0.49895564  0.59442365  0.29679637    -0.51900
C109        C  0.53225949  0.59862223  0.19746831     0.70100
O110        O  0.55625148  0.58082142  0.20992809    -0.46800
C111        C  0.47417201  0.52093017  0.25923525     0.74800
O112        O  0.55412432  0.51898019  0.23405379    -0.58600
O113        O  0.49552698  0.52349886  0.28325188    -0.48700
O114        O  0.57330075  0.53950926  0.28059088    -0.55000
C115        C  0.52499886  0.61072241  0.30597515     0.85000
O116        O  0.50593081  0.60045380  0.21612779    -0.56900
O117        O  0.47856528  0.54152574  0.23461997    -0.60200
In118      In  0.65158174  0.44269147  0.25308850     1.36900
C119        C  0.60999212  0.38934023  0.25722190     0.77500
O120        O  0.68374354  0.41746570  0.29345070    -0.61000
O121        O  0.68965594  0.47124088  0.28537648    -0.51900
C122        C  0.68512630  0.44521356  0.19356449     0.70100
O123        O  0.69243709  0.42364484  0.21667477    -0.46800
C124        C  0.60395991  0.49165946  0.25610206     0.74800
O125        O  0.62993934  0.39394880  0.23231334    -0.58600
O126        O  0.62643488  0.48831678  0.27908247    -0.48700
O127        O  0.61293828  0.41059573  0.28125493    -0.55000
C128        C  0.69843405  0.44476211  0.30216732     0.85000
O129        O  0.66248221  0.46686692  0.20191098    -0.56900
O130        O  0.60654270  0.47076178  0.23167514    -0.60200
In131      In  0.40571688  0.44107721  0.25423013     1.36900
C132        C  0.44789809  0.49434332  0.25869404     0.77500
O133        O  0.37013258  0.46685562  0.29179080    -0.61000
O134        O  0.37096181  0.41229867  0.29013397    -0.51900
C135        C  0.36957042  0.43483768  0.19642140     0.70100
O136        O  0.36710142  0.46077130  0.21559679    -0.46800
C137        C  0.45373670  0.39225232  0.25490188     0.74800
O138        O  0.42909920  0.48943052  0.23304929    -0.58600
O139        O  0.43348731  0.39668206  0.27981561    -0.48700
O140        O  0.44385069  0.47318484  0.28285201    -0.55000
C141        C  0.35863231  0.43908147  0.30364105     0.85000
O142        O  0.38935879  0.41170537  0.20763022    -0.56900
O143        O  0.44917489  0.41248540  0.22996158    -0.60200
In144      In  0.53162687  0.31988182  0.25262627     1.36900
C145        C  0.48089892  0.36601625  0.25454806     0.77500
O146        O  0.50461508  0.28031426  0.28483915    -0.61000
O147        O  0.55790686  0.28715248  0.29232539    -0.51900
C148        C  0.52952445  0.28488202  0.19404044     0.70100
O149        O  0.50572290  0.30454564  0.20391604    -0.46800
C150        C  0.58366632  0.36301044  0.25686322     0.74800
O151        O  0.50068412  0.36251503  0.22924726    -0.58600
O152        O  0.56257646  0.35907079  0.28097633    -0.48700
O153        O  0.48665513  0.34559016  0.27916551    -0.55000
C154        C  0.53121532  0.27141691  0.30096103     0.85000
O155        O  0.55385103  0.28168864  0.21499097    -0.56900
O156        O  0.57899466  0.34400219  0.23131982    -0.60200
In157      In  0.64324650  0.68774538  0.50333839     1.36900
C158        C  0.59601843  0.68506902  0.45436310     0.77500
O159        O  0.68181708  0.65427947  0.47601660    -0.61000
O160        O  0.67856279  0.65055327  0.53026474    -0.51900
C161        C  0.67790585  0.74646037  0.50031335     0.70100
O162        O  0.66086713  0.73517146  0.47552351    -0.46800
C163        C  0.60087278  0.68188565  0.55604849     0.74800
O164        O  0.59722757  0.70873454  0.47621212    -0.58600
O165        O  0.60956612  0.65637687  0.53803797    -0.48700
O166        O  0.61915336  0.66235670  0.45727497    -0.55000
C167        C  0.69284834  0.64032048  0.50311529     0.85000
O168        O  0.67815211  0.72695379  0.52617266    -0.56900
O169        O  0.61487215  0.70978997  0.54798867    -0.60200
In170      In  0.52287573  0.67797958  0.62663508     1.36900
C171        C  0.47071828  0.67121261  0.58382005     0.77500
O172        O  0.56203698  0.70661678  0.59616123    -0.61000
O173        O  0.56221315  0.65209984  0.59300347    -0.51900
C174        C  0.52374814  0.73835689  0.65876708     0.70100
O175        O  0.50634001  0.73279917  0.63229431    -0.46800
C176        C  0.52240627  0.62830487  0.67360118     0.74800
O177        O  0.46775724  0.68709637  0.61180754    -0.58600
O178        O  0.54962189  0.64151836  0.66268762    -0.48700
O179        O  0.49941305  0.65700782  0.57897376    -0.55000
C180        C  0.57486750  0.68002113  0.58284186     0.85000
O181        O  0.54022966  0.71238734  0.66951124    -0.56900
O182        O  0.49537042  0.64058988  0.66073734    -0.60200
In183      In  0.52042283  0.68531465  0.38062964     1.36900
C184        C  0.46759176  0.67932537  0.42342802     0.77500
O185        O  0.49656666  0.64395530  0.34898129    -0.61000
O186        O  0.54942360  0.65385490  0.34168569    -0.51900
C187        C  0.52259628  0.74419193  0.34477971     0.70100
O188        O  0.49822303  0.72339576  0.34209849    -0.46800
C189        C  0.56951740  0.68457997  0.42787148     0.74800
O190        O  0.47162219  0.70526433  0.40441196    -0.58600
O191        O  0.56772417  0.66172793  0.40508156    -0.48700
O192        O  0.48936549  0.65557008  0.41913251    -0.55000
C193        C  0.52371522  0.63669990  0.33298342     0.85000
O194        O  0.54614347  0.73397644  0.36438973    -0.56900
O195        O  0.54653386  0.70747053  0.42629405    -0.60200
In196      In  0.40071359  0.67917334  0.50535495     1.36900
C197        C  0.44421144  0.67154074  0.55740925     0.77500
O198        O  0.36360910  0.64402236  0.53269957    -0.61000
O199        O  0.36613367  0.64216694  0.47849738    -0.51900
C200        C  0.37212191  0.74218392  0.50648846     0.70100
O201        O  0.35632567  0.71574488  0.49692921    -0.46800
C202        C  0.44147927  0.67810444  0.45044164     0.74800
O203        O  0.41569898  0.68659080  0.56086295    -0.58600
O204        O  0.43797561  0.65247730  0.46997250    -0.48700
O205        O  0.44939631  0.65878360  0.52828846    -0.55000
C206        C  0.35248434  0.63091647  0.50549495     0.85000
O207        O  0.40256854  0.73615223  0.51548387    -0.56900
O208        O  0.42257735  0.70353422  0.45764555    -0.60200
In209      In  0.27724642  0.93982655  0.50393265     1.36900
C210        C  0.24607532  0.94182487  0.56441078     0.77500
O211        O  0.27457336  0.88229341  0.50717890    -0.61000
O212        O  0.32356570  0.90478604  0.50452890    -0.51900
C213        C  0.24666274  0.94045778  0.44331081     0.70100
O214        O  0.23162792  0.94968219  0.47043300    -0.46800
C215        C  0.31002556  0.99952947  0.50224962     0.74800
O216        O  0.23053878  0.93495914  0.53706523    -0.58600
O217        O  0.32506077  0.97089196  0.50581482    -0.48700
O218        O  0.27748595  0.94761833  0.56046847    -0.55000
C219        C  0.30650929  0.87743259  0.50617669     0.85000
O220        O  0.27747464  0.93138728  0.44722958    -0.56900
O221        O  0.27803760  0.99739024  0.49900561    -0.60200
In222      In  0.52762756  0.94047742  0.24880235     1.36900
C223        C  0.46587611  0.94279530  0.22048675     0.77500
O224        O  0.51864465  0.88350577  0.24675228    -0.61000
O225        O  0.53168803  0.90520468  0.29462161    -0.51900
C226        C  0.58758157  0.93654362  0.21651189     0.70100
O227        O  0.56053027  0.94665094  0.20189003    -0.46800
C228        C  0.53156760  0.00219831  0.27859265     0.74800
O229        O  0.49299179  0.93861606  0.20331091    -0.58600
O230        O  0.52878533  0.97450715  0.29536006    -0.48700
O231        O  0.47062566  0.94599272  0.25229943    -0.55000
C232        C  0.52428873  0.87832848  0.27818324     0.85000
O233        O  0.58381650  0.92835286  0.24755523    -0.56900
O234        O  0.53226971  0.99817092  0.24660385    -0.60200
In235      In  0.26763243  0.94223952  0.13330334     1.36900
C236        C  0.26509742  0.88816037  0.09163917     0.77500
O237        O  0.23175977  0.91417952  0.16872870    -0.61000
O238        O  0.23193757  0.96873732  0.17040876    -0.51900
C239        C  0.32902550  0.94406156  0.16283419     0.70100
O240        O  0.32444646  0.93624026  0.13186188    -0.46800
C241        C  0.26470816  0.99545623  0.08993521     0.74800
O242        O  0.28376697  0.88842423  0.11792294    -0.58600
O243        O  0.23956658  0.97625492  0.09560811    -0.48700
O244        O  0.24587059  0.91411149  0.08831087    -0.55000
C245        C  0.21949415  0.94120399  0.18187047     0.85000
O246        O  0.30176996  0.95091753  0.17897250    -0.56900
O247        O  0.29055501  0.98903062  0.10810886    -0.60200
In248      In  0.26835103  0.06054051  0.00628291     1.36900
C249        C  0.26488852  0.02110002  0.06229583     0.77500
O250        O  0.23368625  0.09976500  0.03107407    -0.61000
O251        O  0.23016811  0.09314508  0.97723597    -0.51900
C252        C  0.33005515  0.08962176  0.00410703     0.70100
O253        O  0.32553996  0.05766310  0.00173835    -0.46800
C254        C  0.26537346  0.01659313  0.95435303     0.74800
O255        O  0.29062190  0.03913264  0.05539211    -0.58600
O256        O  0.24901422  0.01227700  0.98181449    -0.48700
O257        O  0.24021064  0.02491577  0.04190434    -0.55000
C258        C  0.21948971  0.10877027  0.00343708     0.85000
O259        O  0.30270734  0.10681011  0.00785301    -0.56900
O260        O  0.28151540  0.04438272  0.95247899    -0.60200
In261      In  0.27863653  0.81914860  0.01275895     1.36900
C262        C  0.28047738  0.86186978  0.95917712     0.77500
O263        O  0.24227927  0.78421417  0.98655786    -0.61000
O264        O  0.24399705  0.78221170  0.04096566    -0.51900
C265        C  0.33813714  0.78488832  0.00992768     0.70100
O266        O  0.33412512  0.81283515  0.02575350    -0.46800
C267        C  0.26771889  0.86160021  0.06519334     0.74800
O268        O  0.30677890  0.85375062  0.97601406    -0.58600
O269        O  0.25111936  0.86352025  0.03762045    -0.48700
O270        O  0.25339776  0.84777273  0.96925956    -0.55000
C271        C  0.23080330  0.77106545  0.01373377     0.85000
O272        O  0.31132069  0.77419891  0.99582260    -0.56900
O273        O  0.28854795  0.83668982  0.06691096    -0.60200
In274      In  0.28007544  0.93815181  0.88572571     1.36900
C275        C  0.26788365  0.99002122  0.92809516     0.77500
O276        O  0.24490764  0.96669763  0.84954568    -0.61000
O277        O  0.24515124  0.91214936  0.84840888    -0.51900
C278        C  0.34121317  0.93724519  0.85479273     0.70100
O279        O  0.33391770  0.95679762  0.87944271    -0.46800
C280        C  0.28094348  0.88710869  0.93129924     0.74800
O281        O  0.28665286  0.99301086  0.90195551    -0.58600
O282        O  0.25432415  0.89595565  0.91526602    -0.48700
O283        O  0.25350999  0.96135305  0.93127625    -0.55000
C284        C  0.23278943  0.93980616  0.83666054     0.85000
O285        O  0.31696503  0.91815286  0.84570970    -0.56900
O286        O  0.30756185  0.90300472  0.92272064    -0.60200
In287      In  0.78063733  0.05690404  0.99209460     1.36900
C288        C  0.79013150  0.01338548  0.94048388     0.77500
O289        O  0.81800658  0.09237875  0.96663607    -0.61000
O290        O  0.81135286  0.09643274  0.02044364    -0.51900
C291        C  0.72076967  0.09058614  0.99466600     0.70100
O292        O  0.73937398  0.09000110  0.96823610    -0.46800
C293        C  0.78130730  0.00951575  0.04117084     0.74800
O294        O  0.76358954  0.03178963  0.94354589    -0.58600
O295        O  0.80463161  0.03160701  0.03848616    -0.48700
O296        O  0.81282797  0.01854665  0.96273928    -0.55000
C297        C  0.82630017  0.10724818  0.99393627     0.85000
O298        O  0.73320984  0.07446731  0.01984715    -0.56900
O299        O  0.75795536  0.01191136  0.01907370    -0.60200
In300      In  0.77882778  0.93345177  0.11490788     1.36900
C301        C  0.78090888  0.98281680  0.06765286     0.77500
O302        O  0.80810168  0.96138943  0.15559461    -0.61000
O303        O  0.81959693  0.90857632  0.14744936    -0.51900
C304        C  0.71948590  0.93551311  0.14860337     0.70100
O305        O  0.73167278  0.96104134  0.13300835    -0.46800
C306        C  0.78502412  0.88049782  0.07278443     0.74800
O307        O  0.75712033  0.96133966  0.06963316    -0.58600
O308        O  0.80936482  0.90077252  0.07829959    -0.48700
O309        O  0.80395363  0.97930293  0.08998078    -0.55000
C310        C  0.82607429  0.93559063  0.16380593     0.85000
O311        O  0.73858568  0.90916898  0.14826819    -0.56900
O312        O  0.75828764  0.88635441  0.08993319    -0.60200
In313      In  0.79358425  0.93168819  0.87361913     1.36900
C314        C  0.79944695  0.87798153  0.91568767     0.77500
O315        O  0.82974796  0.90577439  0.83648638    -0.61000
O316        O  0.82966400  0.96023446  0.83876363    -0.51900
C317        C  0.73118641  0.93038523  0.84592534     0.70100
O318        O  0.75792640  0.93542647  0.82842377    -0.46800
C319        C  0.79297300  0.98625410  0.91468691     0.74800
O320        O  0.78247604  0.87667167  0.88835161    -0.58600
O321        O  0.81806274  0.96569148  0.91314372    -0.48700
O322        O  0.81540541  0.90552874  0.92004999    -0.55000
C323        C  0.84192875  0.93347783  0.82518677     0.85000
O324        O  0.73669938  0.92580310  0.87744619    -0.56900
O325        O  0.76928160  0.98019024  0.89382604    -0.60200
In326      In  0.78791188  0.80949917  0.99502883     1.36900
C327        C  0.78672095  0.85358758  0.04685949     0.77500
O328        O  0.82352084  0.77442514  0.02383954    -0.61000
O329        O  0.82257935  0.77078991  0.96956824    -0.51900
C330        C  0.72627782  0.78073275  0.99425551     0.70100
O331        O  0.73280063  0.80875738  0.97933863    -0.46800
C332        C  0.79806863  0.85137689  0.94217969     0.74800
O333        O  0.76081806  0.83689246  0.03795016    -0.58600
O334        O  0.81271619  0.85495740  0.97057677    -0.48700
O335        O  0.81361532  0.84665442  0.03037905    -0.55000
C336        C  0.83534525  0.76025043  0.99735021     0.85000
O337        O  0.75160520  0.76738447  0.00957859    -0.56900
O338        O  0.77990804  0.82488827  0.93976111    -0.60200
In339      In  0.52634382  0.30889522  0.74531252     1.36900
C340        C  0.58031872  0.34956027  0.74372501     0.77500
O341        O  0.55467292  0.26965107  0.71391128    -0.61000
O342        O  0.50136842  0.27665923  0.70516160    -0.51900
C343        C  0.52371046  0.27725155  0.80592302     0.70100
O344        O  0.53250134  0.26202408  0.77879165    -0.46800
C345        C  0.47314324  0.35191335  0.73846726     0.74800
O346        O  0.56983936  0.33583148  0.77105169    -0.58600
O347        O  0.50192261  0.35738542  0.72511455    -0.48700
O348        O  0.56459552  0.34087491  0.71707218    -0.55000
C349        C  0.52859089  0.26077094  0.69740307     0.85000
O350        O  0.51653766  0.30868987  0.80180637    -0.56900
O351        O  0.47070398  0.32337086  0.75368044    -0.60200
In352      In  0.40141673  0.42989027  0.74624174     1.36900
C353        C  0.44588760  0.37810383  0.73851815     0.77500
O354        O  0.36761254  0.40271761  0.70865126    -0.61000
O355        O  0.36365909  0.45713861  0.71222834    -0.51900
C356        C  0.36923986  0.42972275  0.80648188     0.70100
O357        O  0.39887432  0.41734058  0.80226043    -0.46800
C358        C  0.44221224  0.48391279  0.74636339     0.74800
O359        O  0.41787079  0.37447529  0.75417870    -0.58600
O360        O  0.43166989  0.47046419  0.71909539    -0.48700
O361        O  0.44987087  0.40716887  0.72484847    -0.55000
C362        C  0.35329423  0.43005229  0.69825493     0.85000
O363        O  0.35597806  0.44191700  0.77959473    -0.56900
O364        O  0.43042801  0.47102297  0.77354003    -0.60200
In365      In  0.52164817  0.55194183  0.74690394     1.36900
C366        C  0.57424782  0.50897259  0.73781383     0.77500
O367        O  0.48086820  0.52187771  0.77383006    -0.61000
O368        O  0.48176255  0.52167167  0.71936627    -0.51900
C369        C  0.52108777  0.58391595  0.80746440     0.70100
O370        O  0.53101546  0.55317641  0.80380399    -0.46800
C371        C  0.52222549  0.60091074  0.69936184     0.74800
O372        O  0.57660478  0.53618558  0.75498127    -0.58600
O373        O  0.49493523  0.58790138  0.71046096    -0.48700
O374        O  0.54581444  0.50482156  0.72350859    -0.55000
C375        C  0.46833787  0.51041558  0.74651363     0.85000
O376        O  0.51071344  0.59791237  0.78012464    -0.56900
O377        O  0.54930172  0.58871981  0.71232120    -0.60200
In378      In  0.64568962  0.43112581  0.74379484     1.36900
C379        C  0.60123196  0.48272322  0.73710199     0.77500
O380        O  0.67991754  0.46112651  0.70851566    -0.61000
O381        O  0.68449084  0.40662222  0.70893090    -0.51900
C382        C  0.67612342  0.43142795  0.80446845     0.70100
O383        O  0.69071178  0.42090935  0.77756821    -0.46800
C384        C  0.60636545  0.37610838  0.74331504     0.74800
O385        O  0.62837352  0.48531606  0.75418137    -0.58600
O386        O  0.61495472  0.39159542  0.71624050    -0.48700
O387        O  0.59791405  0.45465129  0.72154643    -0.55000
C388        C  0.69484924  0.43475957  0.69684864     0.85000
O389        O  0.64564980  0.44145633  0.80016302    -0.56900
O390        O  0.61968174  0.38727154  0.77034341    -0.60200
In391      In  0.27491327  0.43637680  0.00195577     1.36900
C392        C  0.24220523  0.37676178  0.00275858     0.77500
O393        O  0.27382043  0.43433871  0.94452404    -0.61000
O394        O  0.32206527  0.43526823  0.96886732    -0.51900
C395        C  0.24756275  0.49943450  0.00217366     0.70100
O396        O  0.22983424  0.47249977  0.00298484    -0.46800
C397        C  0.30293638  0.43460934  0.06395761     0.74800
O398        O  0.22736644  0.40507613  0.99665038    -0.58600
O399        O  0.32032204  0.43100485  0.03683781    -0.48700
O400        O  0.27383276  0.37913446  0.00837499    -0.55000
C401        C  0.30586410  0.43413104  0.94099100     0.85000
O402        O  0.27938593  0.49384380  0.00128162    -0.56900
O403        O  0.27132245  0.43912882  0.05910486    -0.60200
In404      In  0.52463469  0.18466790  0.00236300     1.36900
C405        C  0.46320841  0.15513784  0.00207567     0.77500
O406        O  0.52777949  0.18376225  0.05964065    -0.61000
O407        O  0.52538968  0.23230405  0.03483297    -0.51900
C408        C  0.58646720  0.15502159  0.00145810     0.70100
O409        O  0.55978708  0.13919612  0.01025506    -0.46800
C410        C  0.52211322  0.21461056  0.94110933     0.74800
O411        O  0.49070289  0.13833607  0.99784305    -0.58600
O412        O  0.52199071  0.23135135  0.96875374    -0.48700
O413        O  0.46748288  0.18679387  0.00694738    -0.55000
C414        C  0.52744808  0.21600295  0.06280358     0.85000
O415        O  0.58138880  0.18598726  0.99301567    -0.56900
O416        O  0.52355396  0.18238442  0.94507199    -0.60200
In417      In  0.03015297  0.69091051  0.12751408     1.36900
C418        C  0.97895643  0.69017087  0.08280469     0.77500
O419        O  0.00038057  0.72593245  0.16249813    -0.61000
O420        O  0.05467909  0.72801313  0.16353221    -0.51900
C421        C  0.03082756  0.62986232  0.15887166     0.70100
O422        O  0.04328338  0.63487396  0.12946333    -0.46800
C423        C  0.08410320  0.70021711  0.08703554     0.74800
O424        O  0.98921320  0.66343538  0.09811982    -0.58600
O425        O  0.05559790  0.71462253  0.08204168    -0.48700
O426        O  0.99358470  0.71741015  0.09159997    -0.55000
C427        C  0.02664845  0.73951224  0.17499243     0.85000
O428        O  0.01809388  0.65650277  0.17247676    -0.56900
O429        O  0.08598258  0.68243289  0.11408179    -0.60200
In430      In  0.15550876  0.69753367  0.00978147     1.36900
C431        C  0.11147179  0.70188255  0.06150700     0.77500
O432        O  0.19136705  0.73160181  0.03959860    -0.61000
O433        O  0.19204728  0.73409888  0.98525539    -0.51900
C434        C  0.18420213  0.63511439  0.00664320     0.70100
O435        O  0.15449305  0.64063703  0.01807695    -0.46800
C436        C  0.11452870  0.70044081  0.95550995     0.74800
O437        O  0.13934986  0.68547665  0.06415247    -0.58600
O438        O  0.12071837  0.72659311  0.97335706    -0.48700
O439        O  0.10754168  0.71792834  0.03369887    -0.55000
C440        C  0.20411575  0.74492660  0.01302825     0.85000
O441        O  0.19963463  0.66192922  0.99720693    -0.56900
O442        O  0.13087176  0.67372888  0.96403687    -0.60200
In443      In  0.91194161  0.68724408  0.00180216     1.36900
C444        C  0.95991372  0.69207441  0.95429836     0.77500
O445        O  0.87478564  0.72027575  0.97237570    -0.61000
O446        O  0.87492615  0.72368711  0.02676864    -0.51900
C447        C  0.87568111  0.63035571  0.99676644     0.70100
O448        O  0.89331926  0.64184813  0.97225077    -0.46800
C449        C  0.95357458  0.68944001  0.05541963     0.74800
O450        O  0.95245920  0.66415042  0.96882885    -0.58600
O451        O  0.94513243  0.71589763  0.03860380    -0.48700
O452        O  0.94232794  0.71781440  0.96350779    -0.55000
C453        C  0.86223043  0.73397083  0.99884719     0.85000
O454        O  0.87624981  0.64840110  0.02353613    -0.56900
O455        O  0.93977560  0.66207200  0.04570160    -0.60200
In456      In  0.03780456  0.69561351  0.88382566     1.36900
C457        C  0.08861556  0.69999035  0.92856990     0.77500
O458        O  0.06501358  0.73390962  0.85086611    -0.61000
O459        O  0.01142381  0.72887759  0.84436531    -0.51900
C460        C  0.03498596  0.63819556  0.84725293     0.70100
O461        O  0.06260283  0.65388723  0.85232043    -0.46800
C462        C  0.98737041  0.69400214  0.92906381     0.74800
O463        O  0.08380955  0.67379953  0.91039033    -0.58600
O464        O  0.99466245  0.72113257  0.91285858    -0.48700
O465        O  0.06812933  0.72467085  0.92313981    -0.55000
C466        C  0.03852649  0.74349336  0.83509001     0.85000
O467        O  0.00890670  0.65269759  0.85986140    -0.56900
O468        O  0.00580445  0.66820648  0.92217888    -0.60200
In469      In  0.14397936  0.18389500  0.00031526     1.36900
C470        C  0.10302190  0.17754360  0.94652447     0.77500
O471        O  0.17938937  0.14571041  0.97437495    -0.61000
O472        O  0.18122235  0.14978353  0.02847650    -0.51900
C473        C  0.17624474  0.24392255  0.00287765     0.70100
O474        O  0.15191843  0.23808181  0.98262688    -0.46800
C475        C  0.09768861  0.18387422  0.05048279     0.74800
O476        O  0.12988125  0.19524139  0.94513805    -0.58600
O477        O  0.10877246  0.15667867  0.03682044    -0.48700
O478        O  0.09862130  0.16150981  0.97426138    -0.55000
C479        C  0.19271600  0.13538321  0.00199369     0.85000
O480        O  0.18414426  0.21876814  0.02186821    -0.56900
O481        O  0.11087764  0.21111017  0.03921848    -0.60200
In482      In  0.01873620  0.18495923  0.12075057     1.36900
C483        C  0.07065387  0.18389975  0.07645130     0.77500
O484        O  0.04448866  0.14642351  0.15516307    -0.61000
O485        O  0.99053667  0.15237096  0.15922362    -0.51900
C486        C  0.01816264  0.24175049  0.15867826     0.70100
O487        O  0.04399858  0.22214004  0.15653225    -0.46800
C488        C  0.96919982  0.18228099  0.07411295     0.74800
O489        O  0.06090353  0.21084940  0.09145177    -0.58600
O490        O  0.98043172  0.15559054  0.08895795    -0.48700
O491        O  0.05461148  0.15719940  0.08477991    -0.55000
C492        C  0.01725261  0.13732713  0.16978316     0.85000
O493        O  0.99229408  0.23126045  0.14269653    -0.56900
O494        O  0.98234564  0.20993177  0.08400449    -0.60200
In495      In  0.89903280  0.18324670  0.99517205     1.36900
C496        C  0.94368047  0.18181353  0.04666096     0.77500
O497        O  0.86248644  0.14763130  0.02205509    -0.61000
O498        O  0.86455051  0.14690214  0.96768844    -0.51900
C499        C  0.86174206  0.24063271  0.99788630     0.70100
O500        O  0.87698256  0.22799987  0.02347500    -0.46800
C501        C  0.94401675  0.18189947  0.94373939     0.74800
O502        O  0.93425825  0.20902470  0.03170888    -0.58600
O503        O  0.93605150  0.15533753  0.96037977    -0.48700
O504        O  0.93010286  0.15474573  0.03554296    -0.55000
C505        C  0.85162631  0.13469147  0.99464120     0.85000
O506        O  0.86345139  0.22251065  0.97118069    -0.56900
O507        O  0.92842775  0.20886013  0.95272546    -0.60200
In508      In  0.02502693  0.18444929  0.87628738     1.36900
C509        C  0.97081544  0.18199767  0.91751643     0.77500
O510        O  0.00015543  0.14890259  0.83861364    -0.61000
O511        O  0.05441584  0.14960983  0.84085385    -0.51900
C512        C  0.02433929  0.24688096  0.84800703     0.70100
O513        O  0.03379177  0.24114869  0.87836567    -0.46800
C514        C  0.07705777  0.17766009  0.91959303     0.74800
O515        O  0.97925893  0.20891124  0.90170478    -0.58600
O516        O  0.04898762  0.16263066  0.92360086    -0.48700
O517        O  0.98861773  0.15574363  0.91053272    -0.55000
C518        C  0.02812723  0.13713011  0.82731305     0.85000
O519        O  0.01522551  0.22035652  0.83198841    -0.56900
O520        O  0.07964945  0.19460364  0.89210061    -0.60200
In521      In  0.03363019  0.06188248  0.75352738     1.36900
C522        C  0.08792065  0.02100049  0.76247908     0.77500
O523        O  0.05809457  0.09948268  0.78913058    -0.61000
O524        O  0.00379439  0.09741681  0.78791288    -0.51900
C525        C  0.03477287  0.09226251  0.69218146     0.70100
O526        O  0.04288647  0.06108069  0.69677094    -0.46800
C527        C  0.98183287  0.01794998  0.75434781     0.74800
O528        O  0.08772181  0.04503947  0.74070998    -0.58600
O529        O  0.00043619  0.02310314  0.77999817    -0.48700
O530        O  0.06154937  0.01943505  0.78088498    -0.55000
C531        C  0.03003390  0.11076316  0.80073702     0.85000
O532        O  0.02610651  0.10781687  0.71925497    -0.56900
O533        O  0.98834795  0.03660494  0.72874620    -0.60200
In534      In  0.15816662  0.94151290  0.76203609     1.36900
C535        C  0.11913136  0.88622891  0.76525791     0.77500
O536        O  0.19488120  0.91358323  0.79685527    -0.61000
O537        O  0.19304836  0.96807925  0.79910531    -0.51900
C538        C  0.18618596  0.94294911  0.70017344     0.70100
O539        O  0.15432772  0.94082732  0.70489796    -0.46800
C540        C  0.11499366  0.99485088  0.76443672     0.74800
O541        O  0.14172006  0.88982674  0.74247418    -0.58600
O542        O  0.11333848  0.96974560  0.78480210    -0.48700
O543        O  0.11797197  0.90971065  0.78734537    -0.55000
C544        C  0.20627927  0.94053950  0.81021945     0.85000
O545        O  0.20360409  0.94402234  0.72734448    -0.56900
O546        O  0.14017807  0.99405855  0.74428419    -0.60200
In547      In  0.91613884  0.93631217  0.74958502     1.36900
C548        C  0.95645528  0.99064318  0.75358650     0.77500
O549        O  0.88130370  0.96216195  0.78792333    -0.61000
O550        O  0.87932019  0.90782745  0.78361264    -0.51900
C551        C  0.88167338  0.93197045  0.69065375     0.70100
O552        O  0.87961829  0.95739825  0.71046372    -0.46800
C553        C  0.96507284  0.88857149  0.75425596     0.74800
O554        O  0.94016721  0.98334309  0.72684718    -0.58600
O555        O  0.94065832  0.89024741  0.77537296    -0.48700
O556        O  0.95086516  0.97120376  0.77890809    -0.55000
C557        C  0.86816545  0.93451588  0.79826463     0.85000
O558        O  0.90031634  0.90785007  0.70189366    -0.56900
O559        O  0.96421482  0.91090392  0.73079536    -0.60200
In560      In  0.04224579  0.81605860  0.75806112     1.36900
C561        C  0.99245661  0.86278140  0.75637203     0.77500
O562        O  0.01387665  0.77701464  0.78972183    -0.61000
O563        O  0.06627945  0.78559236  0.80067033    -0.51900
C564        C  0.03987810  0.78285398  0.69858620     0.70100
O565        O  0.01705696  0.80347010  0.70860529    -0.46800
C566        C  0.09398333  0.85880223  0.76453935     0.74800
O567        O  0.01660719  0.86202601  0.73493764    -0.58600
O568        O  0.06969931  0.85755914  0.78577884    -0.48700
O569        O  0.99376332  0.83970843  0.77926125    -0.55000
C570        C  0.03948196  0.76939631  0.80789249     0.85000
O571        O  0.06347384  0.77749987  0.71999287    -0.56900
O572        O  0.09319764  0.83650028  0.74120329    -0.60200
In573      In  0.14222351  0.93935076  0.25436874     1.36900
C574        C  0.09494536  0.98911637  0.24962842     0.77500
O575        O  0.18039851  0.96756405  0.22149798    -0.61000
O576        O  0.17936423  0.91312629  0.21864477    -0.51900
C577        C  0.17771713  0.94133869  0.31235646     0.70100
O578        O  0.16474376  0.96777316  0.29854129    -0.46800
C579        C  0.09978215  0.88642457  0.25121317     0.74800
O580        O  0.10385976  0.97575098  0.27770260    -0.58600
O581        O  0.11004811  0.90211016  0.22487319    -0.48700
O582        O  0.11046341  0.97742966  0.22374289    -0.55000
C583        C  0.19254419  0.94063494  0.20809113     0.85000
O584        O  0.17366681  0.91398768  0.29563865    -0.56900
O585        O  0.11178110  0.89719475  0.27902324    -0.60200
In586      In  0.01722085  0.06203269  0.24448899     1.36900
C587        C  0.96402179  0.02140260  0.23502037     0.77500
O588        O  0.98990975  0.10127309  0.21139449    -0.61000
O589        O  0.04389813  0.09638418  0.20700492    -0.51900
C590        C  0.02060740  0.09416914  0.30446235     0.70100
O591        O  0.00056477  0.06973852  0.29867619    -0.46800
C592        C  0.06809490  0.01562703  0.24752934     0.74800
O593        O  0.96379900  0.04491683  0.25711273    -0.58600
O594        O  0.05814775  0.02878796  0.21970148    -0.48700
O595        O  0.99014388  0.02050273  0.21606577    -0.55000
C596        C  0.01693107  0.11109203  0.19678375     0.85000
O597        O  0.03839707  0.10309259  0.27892157    -0.56900
O598        O  0.05259822  0.02657059  0.27363321    -0.60200
In599      In  0.90019234  0.93859327  0.23883932     1.36900
C600        C  0.94403083  0.88590485  0.23612129     0.77500
O601        O  0.87095300  0.91124406  0.19780617    -0.61000
O602        O  0.85864506  0.96360677  0.20714584    -0.51900
C603        C  0.87378221  0.93548748  0.30192005     0.70100
O604        O  0.90547508  0.93750140  0.29624709    -0.46800
C605        C  0.93813460  0.99461844  0.23395061     0.74800
O606        O  0.91571518  0.88388740  0.25148905    -0.58600
O607        O  0.93906451  0.97100418  0.21200317    -0.48700
O608        O  0.94908625  0.91404344  0.22099524    -0.55000
C609        C  0.85253076  0.93687696  0.19021663     0.85000
O610        O  0.85578969  0.93498174  0.27510472    -0.56900
O611        O  0.91562464  0.99121256  0.25687150    -0.60200
In612      In  0.02242820  0.81566955  0.24797382     1.36900
C613        C  0.07433715  0.85919431  0.24984902     0.77500
O614        O  0.05128134  0.77972097  0.21343313    -0.61000
O615        O  0.99696524  0.77863617  0.21212940    -0.51900
C616        C  0.02114951  0.78467612  0.30916126     0.70100
O617        O  0.00727985  0.81347989  0.30322990    -0.46800
C618        C  0.97036638  0.85897401  0.23771772     0.74800
O619        O  0.06240104  0.84522067  0.27642357    -0.58600
O620        O  0.99910592  0.86256742  0.22366468    -0.48700
O621        O  0.06122707  0.84935168  0.22216995    -0.55000
C622        C  0.02485857  0.76661461  0.20081198     0.85000
O623        O  0.03561981  0.77145843  0.28333974    -0.56900
O624        O  0.96717153  0.83175289  0.25505387    -0.60200
In625      In  0.76812671  0.56485133  0.50310208     1.36900
C626        C  0.76874622  0.52071803  0.55558497     0.77500
O627        O  0.73074411  0.59991429  0.53017572    -0.61000
O628        O  0.73404768  0.60335504  0.47602155    -0.51900
C629        C  0.82976967  0.59420952  0.50430653     0.70100
O630        O  0.80405384  0.60685654  0.51959623    -0.46800
C631        C  0.75984134  0.52319627  0.44977708     0.74800
O632        O  0.79557320  0.53385457  0.54363428    -0.58600
O633        O  0.74573138  0.51812722  0.47836132    -0.48700
O634        O  0.74144081  0.53113885  0.54171774    -0.55000
C635        C  0.71993768  0.61396931  0.50309646     0.85000
O636        O  0.82351156  0.56688960  0.48838227    -0.56900
O637        O  0.77607651  0.55093732  0.44748833    -0.60200
In638      In  0.77126916  0.43983790  0.62407539     1.36900
C639        C  0.76524069  0.38779364  0.58012359     0.77500
O640        O  0.73716771  0.41019978  0.65976574    -0.61000
O641        O  0.73235228  0.46462514  0.65884434    -0.51900
C642        C  0.83130811  0.44250746  0.65659211     0.70100
O643        O  0.82711059  0.42727346  0.62847968    -0.46800
C644        C  0.76946895  0.49376091  0.58188797     0.74800
O645        O  0.77999555  0.38421001  0.60863607    -0.58600
O646        O  0.74278983  0.47907696  0.59234790    -0.48700
O647        O  0.75214705  0.41706008  0.57511955    -0.55000
C648        C  0.72213687  0.43658331  0.67122064     0.85000
O649        O  0.80444526  0.45647724  0.66822366    -0.56900
O650        O  0.79697850  0.48200485  0.59426083    -0.60200
In651      In  0.76982602  0.44464525  0.37994156     1.36900
C652        C  0.77110265  0.39075523  0.42257130     0.77500
O653        O  0.77802726  0.49972796  0.39596748    -0.61000
O654        O  0.74550033  0.46867714  0.42639738    -0.51900
C655        C  0.83037042  0.44286302  0.34874340     0.70100
O656        O  0.82516885  0.45843478  0.37660616    -0.46800
C657        C  0.72359889  0.44526501  0.32989353     0.74800
O658        O  0.79783237  0.40284117  0.40927599    -0.58600
O659        O  0.73712748  0.47242696  0.34067587    -0.48700
O660        O  0.74373889  0.40540755  0.41324985    -0.55000
C661        C  0.76031160  0.49705161  0.42286231     0.85000
O662        O  0.80438289  0.42824773  0.33675430    -0.56900
O663        O  0.73330510  0.41819446  0.34493659    -0.60200
In664      In  0.77292991  0.31859930  0.50052021     1.36900
C665        C  0.77180795  0.36324142  0.44840035     0.77500
O666        O  0.73572776  0.28379103  0.47429858    -0.61000
O667        O  0.73877510  0.28105108  0.52849015    -0.51900
C668        C  0.83369040  0.28634035  0.49761453     0.70100
O669        O  0.82855948  0.31392449  0.51377821    -0.46800
C670        C  0.76541797  0.36136558  0.55341936     0.74800
O671        O  0.79923069  0.35032622  0.45982676    -0.58600
O672        O  0.75184278  0.36661139  0.52465559    -0.48700
O673        O  0.74500236  0.35201956  0.46233131    -0.55000
C674        C  0.72524623  0.26985941  0.50150015     0.85000
O675        O  0.80751568  0.27519887  0.48262272    -0.56900
O676        O  0.78101974  0.33294254  0.55620568    -0.60200
In677      In  0.03001724  0.19087720  0.49807271     1.36900
C678        C  0.96869569  0.22191202  0.49726127     0.77500
O679        O  0.03448997  0.19247842  0.44083794    -0.61000
O680        O  0.02547094  0.14434600  0.46451751    -0.51900
C681        C  0.09134467  0.21976720  0.49813286     0.70100
O682        O  0.06392197  0.23704400  0.49583390    -0.46800
C683        C  0.03119224  0.16112013  0.55969616     0.74800
O684        O  0.99643417  0.23811092  0.49914697    -0.58600
O685        O  0.03523865  0.14457748  0.53219190    -0.48700
O686        O  0.97251847  0.18968562  0.49580395    -0.55000
C687        C  0.02982693  0.16072881  0.43686572     0.85000
O688        O  0.08720332  0.18776980  0.50075953    -0.56900
O689        O  0.02613778  0.19291611  0.55538395    -0.60200
In690      In  0.02709881  0.43502241  0.25709804     1.36900
C691        C  0.96583590  0.43602432  0.28776696     0.77500
O692        O  0.02239780  0.49239601  0.25858377    -0.61000
O693        O  0.03317096  0.46909754  0.21079525    -0.51900
C694        C  0.08849215  0.43524016  0.28695495     0.70100
O695        O  0.06104002  0.43012935  0.30327717    -0.46800
C696        C  0.02628334  0.37361787  0.22691565     0.74800
O697        O  0.99351380  0.43924927  0.30397887    -0.58600
O698        O  0.01782061  0.40107741  0.21162853    -0.48700
O699        O  0.96981279  0.43188542  0.25598513    -0.55000
C700        C  0.02813247  0.49671479  0.22707518     0.85000
O701        O  0.08428679  0.44012204  0.25522391    -0.56900
O702        O  0.03555265  0.37775705  0.25752198    -0.60200
In703      In  0.02483583  0.68846968  0.50497384     1.36900
C704        C  0.03235503  0.71857246  0.56550933     0.77500
O705        O  0.96819376  0.68972146  0.51531383    -0.61000
O706        O  0.99029470  0.64301024  0.49825376    -0.51900
C707        C  0.02331951  0.71808992  0.44301307     0.70100
O708        O  0.01714662  0.73448911  0.47026490    -0.46800
C709        C  0.08560253  0.65762930  0.50594258     0.74800
O710        O  0.02889177  0.73551891  0.53798836    -0.58600
O711        O  0.05816884  0.64177244  0.51197019    -0.48700
O712        O  0.03144145  0.68641735  0.56188051    -0.55000
C713        C  0.96342584  0.65878559  0.50736010     0.85000
O714        O  0.02980063  0.68661248  0.44771976    -0.56900
O715        O  0.08164759  0.68908479  0.49866236    -0.60200
In716      In  0.02543393  0.44325940  0.75310978     1.36900
C717        C  0.08701060  0.43997700  0.72418385     0.77500
O718        O  0.03916688  0.49906314  0.75366646    -0.61000
O719        O  0.01479542  0.47839725  0.79763860    -0.51900
C720        C  0.96538662  0.44524616  0.72065803     0.70100
O721        O  0.99333919  0.43917614  0.70545508    -0.46800
C722        C  0.02385121  0.38167251  0.78327022     0.74800
O723        O  0.06059977  0.44956383  0.70796946    -0.58600
O724        O  0.03002129  0.40888062  0.79966034    -0.48700
O725        O  0.08176498  0.43189238  0.75509894    -0.55000
C726        C  0.02733291  0.50453185  0.78321704     0.85000
O727        O  0.96853266  0.45117895  0.75221160    -0.56900
O728        O  0.01802982  0.38649931  0.75186154    -0.60200
In729      In  0.78135549  0.93634967  0.49896258     1.36900
C730        C  0.81021241  0.93368994  0.43690246     0.77500
O731        O  0.77818540  0.88025174  0.51167800    -0.61000
O732        O  0.73431289  0.90453150  0.49044616    -0.51900
C733        C  0.81439074  0.93607138  0.55843036     0.70100
O734        O  0.82827303  0.92580819  0.53098008    -0.46800
C735        C  0.75321634  0.99914754  0.50086614     0.74800
O736        O  0.82728070  0.93800547  0.46397961    -0.58600
O737        O  0.73745129  0.97242297  0.50997211    -0.48700
O738        O  0.77856985  0.93037424  0.44196953    -0.55000
C739        C  0.74780134  0.87710401  0.50167676     0.85000
O740        O  0.78393767  0.94654627  0.55520380    -0.56900
O741        O  0.78322325  0.99352691  0.49011284    -0.60200
In742      In  0.77430426  0.43969189  0.99630000     1.36900
C743        C  0.80001111  0.37631830  0.99653369     0.77500
O744        O  0.77847638  0.43472151  0.05308416    -0.61000
O745        O  0.72956407  0.44534699  0.03187963    -0.51900
C746        C  0.80697504  0.49942954  0.99347820     0.70100
O747        O  0.82067965  0.47149593  0.98403601    -0.46800
C748        C  0.74150531  0.43974502  0.93706234     0.74800
O749        O  0.81771439  0.40240306  0.00338708    -0.58600
O750        O  0.72605724  0.44033680  0.96551736    -0.48700
O751        O  0.76914672  0.38287016  0.98971156    -0.55000
C752        C  0.74708745  0.44011586  0.05862894     0.85000
O753        O  0.77669875  0.49651932  0.00418466    -0.56900
O754        O  0.77368177  0.44025488  0.93927201    -0.60200
In755      In  0.53189884  0.68675106  0.99886548     1.36900
C756        C  0.47157680  0.71873873  0.00125242     0.77500
O757        O  0.53302500  0.68485433  0.94123303    -0.61000
O758        O  0.52755257  0.63797409  0.96820563    -0.51900
C759        C  0.59286338  0.71655592  0.99710091     0.70100
O760        O  0.56573987  0.73227914  0.98869027    -0.46800
C761        C  0.53230477  0.66012356  0.06201924     0.74800
O762        O  0.49956643  0.73436305  0.00385435    -0.58600
O763        O  0.53755817  0.64216507  0.03556716    -0.48700
O764        O  0.47467308  0.68677788  0.99650851    -0.55000
C765        C  0.52950742  0.65270444  0.93939401     0.85000
O766        O  0.58857548  0.68558982  0.00551523    -0.56900
O767        O  0.52680115  0.69152699  0.05589890    -0.60200
In768      In  0.53408933  0.93271894  0.75508122     1.36900
C769        C  0.59621776  0.93225754  0.78337994     0.77500
O770        O  0.53953588  0.87538001  0.75613452    -0.61000
O771        O  0.52641337  0.89913782  0.70900661    -0.51900
C772        C  0.47321424  0.93360998  0.78609696     0.70100
O773        O  0.50103457  0.93504963  0.80241798    -0.46800
C774        C  0.53443677  0.99373079  0.72458079     0.74800
O775        O  0.56911841  0.92937138  0.80083232    -0.58600
O776        O  0.53976440  0.96604677  0.70859943    -0.48700
O777        O  0.59114978  0.93595773  0.75168764    -0.55000
C778        C  0.53255538  0.87143258  0.72489989     0.85000
O779        O  0.47685359  0.93172058  0.75406255    -0.56900
O780        O  0.52868738  0.99003925  0.75619575    -0.60200
C781        C  0.86786826  0.26919788  0.49640065    -0.00300
C782        C  0.89663535  0.28858905  0.50519181    -0.12200
C783        C  0.92955636  0.27404859  0.50534199     0.02000
C784        C  0.93440200  0.23899321  0.49676770    -0.00400
C785        C  0.90559524  0.21955057  0.48781653    -0.12100
C786        C  0.87261620  0.23425765  0.48742113     0.01800
H787        H  0.89345174  0.31545731  0.51203531     0.14800
H788        H  0.90877215  0.19265015  0.48112995     0.14800
C789        C  0.84417296  0.21255286  0.47871792     0.36500
C790        C  0.95752570  0.29585727  0.51518271     0.36400
N791        N  0.82137703  0.19514090  0.47179566    -0.43900
N792        N  0.97967653  0.31365206  0.52312899    -0.43900
C793        C  0.86454202  0.44115263  0.33238181    -0.00300
C794        C  0.89343530  0.44458323  0.35328552    -0.12200
C795        C  0.92654769  0.44249980  0.33968674     0.02000
C796        C  0.93136783  0.43739105  0.30407830    -0.00400
C797        C  0.90228577  0.43408353  0.28311982    -0.12100
C798        C  0.86913262  0.43580221  0.29687613     0.01800
H799        H  0.89017468  0.44839999  0.38064554     0.14800
H800        H  0.90535688  0.43032413  0.25575548     0.14800
C801        C  0.84043127  0.43313120  0.27376913     0.36500
C802        C  0.95473809  0.44544942  0.36329069     0.36400
N803        N  0.81746596  0.43105792  0.25522529    -0.43900
N804        N  0.97694533  0.44776128  0.38269202    -0.43900
C805        C  0.86523857  0.44387849  0.67371881    -0.00300
C806        C  0.89375190  0.43004929  0.65635475    -0.12200
C807        C  0.92647327  0.43028312  0.67083648     0.02000
C808        C  0.93146655  0.44502485  0.70348903    -0.00400
C809        C  0.90296787  0.45882411  0.72095659    -0.12100
C810        C  0.87011783  0.45829220  0.70658574     0.01800
H811        H  0.89051183  0.41858356  0.63123338     0.14800
H812        H  0.90627266  0.46997400  0.74619800     0.14800
C813        C  0.84209027  0.47216241  0.72660376     0.36500
C814        C  0.95392589  0.41381909  0.65201158     0.36400
N815        N  0.81980030  0.48324599  0.74290451    -0.43900
N816        N  0.97565392  0.40030933  0.63679535    -0.43900
C817        C  0.86433496  0.61003837  0.50519908    -0.00300
C818        C  0.86845632  0.64130865  0.52259955    -0.12200
C819        C  0.90039898  0.65733769  0.52432176     0.02000
C820        C  0.92919555  0.64236746  0.50783894    -0.00400
C821        C  0.92520724  0.61087449  0.49088326    -0.12100
C822        C  0.89341508  0.59459143  0.48955671     0.01800
H823        H  0.84667451  0.65325865  0.53522122     0.14800
H824        H  0.94704612  0.59886502  0.47838654     0.14800
C825        C  0.89189233  0.56183334  0.47230899     0.36500
C826        C  0.90284082  0.68843109  0.54426401     0.36400
N827        N  0.89091525  0.53550802  0.45860558    -0.43900
N828        N  0.90461729  0.71317087  0.56054495    -0.43900
C829        C  0.02095184  0.76791141  0.34354712    -0.00300
C830        C  0.03685796  0.73554366  0.34743835    -0.12200
C831        C  0.03805720  0.71886687  0.37936016     0.02000
C832        C  0.02288176  0.73451056  0.40847277    -0.00400
C833        C  0.00703859  0.76688263  0.40460148    -0.12100
C834        C  0.00591413  0.78361871  0.37271513     0.01800
H835        H  0.04877341  0.72322227  0.32547476     0.14800
H836        H  0.99531293  0.77926909  0.42666627     0.14800
C837        C  0.98940486  0.81701651  0.37105148     0.36500
C838        C  0.05607732  0.68628791  0.38144613     0.36400
N839        N  0.97624979  0.84381046  0.36969333    -0.43900
N840        N  0.07065957  0.66025414  0.38300258    -0.43900
C841        C  0.82608403  0.93305666  0.40215946    -0.00300
C842        C  0.86186769  0.93534231  0.39932724    -0.12200
C843        C  0.87814538  0.93614067  0.36724116     0.02000
C844        C  0.85850785  0.93407637  0.33687046    -0.00400
C845        C  0.82280790  0.93134121  0.33974732    -0.12100
C846        C  0.80649932  0.93114658  0.37173015     0.01800
H847        H  0.87729419  0.93703363  0.42230048     0.14800
H848        H  0.80730202  0.92993977  0.31680406     0.14800
C849        C  0.76956079  0.93012996  0.37200633     0.36500
C850        C  0.91487086  0.93997881  0.36660792     0.36400
N851        N  0.73995157  0.92958720  0.37179134    -0.43900
N852        N  0.94427827  0.94327307  0.36634328    -0.43900
C853        C  0.02873870  0.14399774  0.40270845    -0.00300
C854        C  0.01708792  0.10999087  0.40068201    -0.12200
C855        C  0.01407929  0.09336357  0.36908920     0.02000
C856        C  0.02329423  0.11066657  0.33850844    -0.00400
C857        C  0.03567272  0.14434345  0.34050890    -0.12100
C858        C  0.03823857  0.16117969  0.37207822     0.01800
H859        H  0.00983431  0.09635962  0.42386266     0.14800
H860        H  0.04292885  0.15780096  0.31724260     0.14800
C861        C  0.05081079  0.19598849  0.37198281     0.36500
C862        C  0.00205692  0.05832300  0.36901290     0.36400
N863        N  0.06082723  0.22390823  0.37180625    -0.43900
N864        N  0.99237210  0.03028161  0.36877393    -0.43900
C865        C  0.03627303  0.73508064  0.59937613    -0.00300
C866        C  0.02252869  0.76818175  0.60409197    -0.12200
C867        C  0.02391394  0.78428686  0.63602224     0.02000
C868        C  0.03908965  0.76703437  0.66422767    -0.00400
C869        C  0.05408000  0.73449321  0.65926619    -0.12100
C870        C  0.05291421  0.71846079  0.62717232     0.01800
H871        H  0.01033628  0.78149703  0.58276564     0.14800
H872        H  0.06655766  0.72144467  0.68056738     0.14800
C873        C  0.07025536  0.68571253  0.62319863     0.36500
C874        C  0.01097641  0.81915286  0.63863745     0.36400
N875        N  0.08445679  0.65963624  0.61999739    -0.43900
N876        N  0.00093848  0.84719121  0.64072629    -0.43900
C877        C  0.86428623  0.93156275  0.65678519    -0.00300
C878        C  0.84325130  0.95979506  0.64800102    -0.12200
C879        C  0.82696043  0.96178070  0.61618035     0.02000
C880        C  0.83199873  0.93540143  0.59191689    -0.00400
C881        C  0.85323448  0.90728340  0.60030343    -0.12100
C882        C  0.86902753  0.90487750  0.63252600     0.01800
H883        H  0.83943438  0.98064026  0.66610306     0.14800
H884        H  0.85687021  0.88669849  0.58187281     0.14800
C885        C  0.88967116  0.87469041  0.63980062     0.36500
C886        C  0.80591980  0.99168487  0.60881686     0.36400
N887        N  0.90606046  0.85037937  0.64558664    -0.43900
N888        N  0.78902546  0.01563780  0.60302513    -0.43900
C889        C  0.03491611  0.10941126  0.65802644    -0.00300
C890        C  0.02685071  0.14469115  0.65623234    -0.12200
C891        C  0.02595981  0.16227441  0.62483088     0.02000
C892        C  0.03247819  0.14429725  0.59397182    -0.00400
C893        C  0.04085742  0.10908954  0.59579194    -0.12100
C894        C  0.04259144  0.09170252  0.62727116     0.01800
H895        H  0.02137436  0.15881217  0.67954248     0.14800
H896        H  0.04649666  0.09499320  0.57247287     0.14800
C897        C  0.05292579  0.05591898  0.62690898     0.36500
C898        C  0.01857421  0.19875692  0.62550195     0.36400
N899        N  0.06155766  0.02734637  0.62640975    -0.43900
N900        N  0.01286597  0.22802227  0.62638852    -0.43900
C901        C  0.02376967  0.34697426  0.79947600    -0.00300
C902        C  0.02605744  0.34429053  0.83534026    -0.12200
C903        C  0.02623478  0.31216712  0.85182031     0.02000
C904        C  0.02410926  0.28168371  0.83224273    -0.00400
C905        C  0.02182607  0.28436292  0.79644643    -0.12100
C906        C  0.02176874  0.31640169  0.77997425     0.01800
H907        H  0.02753217  0.36745579  0.85071946     0.14800
H908        H  0.02045763  0.26122066  0.78107571     0.14800
C909        C  0.02027240  0.31674024  0.74297697     0.36500
C910        C  0.02784292  0.31151957  0.88882628     0.36400
N911        N  0.01911938  0.31694195  0.71332627    -0.43900
N912        N  0.02909037  0.31105958  0.91847620    -0.43900
C913        C  0.81441561  0.34099334  0.99699862    -0.00300
C914        C  0.84383463  0.33468721  0.01662328    -0.12200
C915        C  0.85903931  0.30204517  0.01776258     0.02000
C916        C  0.84494322  0.27481744  0.99875095    -0.00400
C917        C  0.81559643  0.28100284  0.97895525    -0.12100
C918        C  0.80000316  0.31365334  0.97819299     0.01800
H919        H  0.85517549  0.35543556  0.03111511     0.14800
H920        H  0.80481477  0.26025023  0.96405482     0.14800
C921        C  0.76998854  0.31842786  0.95708600     0.36500
C922        C  0.89029412  0.29777562  0.03703729     0.36400
N923        N  0.74591841  0.32205974  0.94016015    -0.43900
N924        N  0.91548985  0.29421112  0.05220637    -0.43900
C925        C  0.01876799  0.27497129  0.17727794    -0.00300
C926        C  0.04266176  0.27956092  0.20370202    -0.12200
C927        C  0.04529501  0.31120569  0.22064841     0.02000
C928        C  0.02450863  0.33939939  0.21039032    -0.00400
C929        C  0.00072655  0.33478848  0.18397093    -0.12100
C930        C  0.99719554  0.30288333  0.16795060     0.01800
H931        H  0.05925703  0.25835090  0.21123150     0.14800
H932        H  0.98429766  0.35603790  0.17622462     0.14800
C933        C  0.97128899  0.29980131  0.14188460     0.36500
C934        C  0.07013734  0.31421173  0.24779828     0.36400
N935        N  0.95021311  0.29719694  0.12131717    -0.43900
N936        N  0.08993728  0.31670069  0.26964601    -0.43900
C937        C  0.03306368  0.60472771  0.82946458    -0.00300
C938        C  0.00604647  0.58267076  0.83795483    -0.12200
C939        C  0.00374921  0.54989688  0.82350753     0.02000
C940        C  0.02849230  0.53886112  0.79939801    -0.00400
C941        C  0.05501199  0.56126178  0.79019056    -0.12100
C942        C  0.05777170  0.59375837  0.80527735     0.01800
H943        H  0.98693534  0.59077176  0.85654026     0.14800
H944        H  0.07408750  0.55309230  0.77158738     0.14800
C945        C  0.08598412  0.61529849  0.79517690     0.36500
C946        C  0.97528174  0.52859103  0.83338232     0.36400
N947        N  0.10869207  0.63246393  0.78714789    -0.43900
N948        N  0.95241487  0.51163819  0.84140448    -0.43900
C949        C  0.85681224  0.59774716  0.99467227    -0.00300
C950        C  0.86943027  0.57157747  0.97326891    -0.12200
C951        C  0.85379467  0.53933550  0.97227383     0.02000
C952        C  0.82463975  0.53299244  0.99284546    -0.00400
C953        C  0.81152383  0.55964289  0.01347597    -0.12100
C954        C  0.82723881  0.59176949  0.01450833     0.01800
H955        H  0.89204198  0.57608691  0.95773602     0.14800
H956        H  0.78895243  0.55536990  0.02907183     0.14800
C957        C  0.81176738  0.61855489  0.03512656     0.36500
C958        C  0.86799274  0.51373016  0.94944088     0.36400
N959        N  0.79948282  0.64029500  0.05135379    -0.43900
N960        N  0.87961089  0.49348526  0.93097657    -0.43900
C961        C  0.03087575  0.59563102  0.17599696    -0.00300
C962        C  0.02168752  0.59358788  0.21077912    -0.12200
C963        C  0.02102693  0.56196704  0.22813892     0.02000
C964        C  0.02908778  0.53117946  0.21041522    -0.00400
C965        C  0.03846725  0.53328634  0.17568848    -0.12100
C966        C  0.03966489  0.56494255  0.15849446     0.01800
H967        H  0.01520123  0.61691928  0.22469159     0.14800
H968        H  0.04503849  0.50999505  0.16173889     0.14800
C969        C  0.04968894  0.56484408  0.12281698     0.36500
C970        C  0.01218672  0.56223428  0.26412603     0.36400
N971        N  0.05780583  0.56481662  0.09425310    -0.43900
N972        N  0.00528981  0.56255534  0.29300595    -0.43900
C973        C  0.22434426  0.34334649  0.00345342    -0.00300
C974        C  0.23974373  0.31556047  0.02090683    -0.12200
C975        C  0.22462236  0.28305170  0.02155947     0.02000
C976        C  0.19341835  0.27776274  0.00412029    -0.00400
C977        C  0.17791606  0.30568657  0.98697919    -0.12100
C978        C  0.19280945  0.33823829  0.98668639     0.01800
H979        H  0.26383567  0.31920146  0.03412099     0.14800
H980        H  0.15387127  0.30215851  0.97366477     0.14800
C981        C  0.17529987  0.36547947  0.96827700     0.36500
C982        C  0.24237312  0.25567875  0.03955242     0.36400
N983        N  0.16090827  0.38707921  0.95352714    -0.43900
N984        N  0.25690630  0.23395310  0.05398591    -0.43900
C985        C  0.23197083  0.53448547  0.00250422    -0.00300
C986        C  0.19633834  0.53763935  0.00660125    -0.12200
C987        C  0.18014552  0.56991396  0.00760215     0.02000
C988        C  0.19976576  0.60018712  0.00462351    -0.00400
C989        C  0.23528260  0.59707438  0.99987038    -0.12100
C990        C  0.25149098  0.56477839  0.99887335     0.01800
H991        H  0.18088044  0.51471562  0.00910679     0.14800
H992        H  0.25064744  0.62005298  0.99732631     0.14800
C993        C  0.28812958  0.56383384  0.99399306     0.36500
C994        C  0.14330859  0.57089644  0.01095411     0.36400
N995        N  0.31749871  0.56322423  0.99006221    -0.43900
N996        N  0.11379151  0.57158772  0.01354762    -0.43900
C997        C  0.69311794  0.43234788  0.83832153    -0.00300
C998        C  0.67331340  0.44024563  0.86744380    -0.12200
C999        C  0.68826240  0.44287300  0.89987713     0.02000
C1000       C  0.72389282  0.43756228  0.90361248    -0.00400
C1001       C  0.74357266  0.42927435  0.87457060    -0.12100
C1002       C  0.72866789  0.42649608  0.84222052     0.01800
H1003       H  0.64593546  0.44470697  0.86489147     0.14800
H1004       H  0.77095171  0.42477004  0.87708641     0.14800
C1005       C  0.75078823  0.41805743  0.81366020     0.36500
C1006       C  0.66650942  0.45197926  0.92850235     0.36400
N1007       N  0.76858175  0.41124151  0.79085226    -0.43900
N1008       N  0.64915562  0.45938426  0.95146648    -0.43900
C1009       C  0.52210879  0.60190448  0.84105168    -0.00300
C1010       C  0.52623777  0.58230029  0.87117351    -0.12200
C1011       C  0.52875541  0.59801651  0.90338549     0.02000
C1012       C  0.52724465  0.63431397  0.90602709    -0.00400
C1013       C  0.52308150  0.65386162  0.87587840    -0.12100
C1014       C  0.52031567  0.63816262  0.84373433     0.01800
H1015       H  0.52768641  0.55445137  0.86959627     0.14800
H1016       H  0.52180526  0.68170781  0.87735021     0.14800
C1017       C  0.51633712  0.66014798  0.81401999     0.36500
C1018       C  0.53377854  0.57615464  0.93301950     0.36400
N1019       N  0.51307610  0.67780769  0.79025169    -0.43900
N1020       N  0.53792128  0.55865213  0.95676770    -0.43900
C1021       C  0.35218517  0.43047879  0.84045698    -0.00300
C1022       C  0.37213747  0.42402581  0.86973435    -0.12200
C1023       C  0.35785829  0.42523998  0.90263453     0.02000
C1024       C  0.32262278  0.43276810  0.90682056    -0.00400
C1025       C  0.30256469  0.43888479  0.87749298    -0.12100
C1026       C  0.31692035  0.43793671  0.84456881     0.01800
H1027       H  0.39924587  0.41829358  0.86701008     0.14800
H1028       H  0.27548107  0.44462529  0.88023525     0.14800
C1029       C  0.29461120  0.44421309  0.81566729     0.36500
C1030       C  0.38007367  0.41814879  0.93139326     0.36400
N1031       N  0.27667662  0.44924706  0.79256494    -0.43900
N1032       N  0.39796681  0.41247292  0.95437917    -0.43900
C1033       C  0.52228369  0.26027432  0.84001688    -0.00300
C1034       C  0.51759186  0.28107930  0.86903409    -0.12200
C1035       C  0.51694629  0.26697936  0.90206338     0.02000
C1036       C  0.52120274  0.23107554  0.90671196    -0.00400
C1037       C  0.52513300  0.21014530  0.87762278    -0.12100
C1038       C  0.52561453  0.22426888  0.84453502     0.01800
H1039       H  0.51466383  0.30868439  0.86602212     0.14800
H1040       H  0.52804450  0.18253537  0.88065578     0.14800
C1041       C  0.52901895  0.20094467  0.81596034     0.36500
C1042       C  0.51167658  0.29027993  0.93037836     0.36400
N1043       N  0.53162276  0.18202343  0.79324289    -0.43900
N1044       N  0.50737848  0.30924727  0.95281248    -0.43900
C1045       C  0.62691672  0.73300249  0.99698148    -0.00300
C1046       C  0.63207734  0.76228242  0.97649454    -0.12200
C1047       C  0.66414550  0.77803627  0.97470184     0.02000
C1048       C  0.69179846  0.76489745  0.99440461    -0.00400
C1049       C  0.68639552  0.73583843  0.01521140    -0.12100
C1050       C  0.65450395  0.71983488  0.01658970     0.01800
H1051       H  0.61116028  0.77248836  0.96116562     0.14800
H1052       H  0.70716449  0.72550918  0.03062705     0.14800
C1053       C  0.65075321  0.69035595  0.03893866     0.36500
C1054       C  0.66790365  0.80693977  0.95163241     0.36400
N1055       N  0.64754871  0.66667968  0.05671957    -0.43900
N1056       N  0.67088603  0.82994765  0.93295312    -0.43900
C1057       C  0.69635418  0.93016223  0.83062145    -0.00300
C1058       C  0.69330135  0.92835338  0.79480452    -0.12200
C1059       C  0.66119427  0.92872537  0.77887444     0.02000
C1060       C  0.63098680  0.93125363  0.79889135    -0.00400
C1061       C  0.63402378  0.93267738  0.83474646    -0.12100
C1062       C  0.66614716  0.93213089  0.85069381     0.01800
H1063       H  0.71613672  0.92644850  0.77905846     0.14800
H1064       H  0.61119513  0.93454985  0.85049067     0.14800
C1065       C  0.66707186  0.93445468  0.88763559     0.36500
C1066       C  0.66027712  0.92580535  0.74198026     0.36400
N1067       N  0.66774962  0.93634762  0.91723584    -0.43900
N1068       N  0.65949593  0.92337734  0.71242520    -0.43900
C1069       C  0.68680413  0.10791847  0.99616389    -0.00300
C1070       C  0.66287650  0.09644298  0.02051187    -0.12200
C1071       C  0.63015480  0.11134258  0.02272941     0.02000
C1072       C  0.62090164  0.13867167  0.00053121    -0.00400
C1073       C  0.64504474  0.15065690  0.97665239    -0.12100
C1074       C  0.67759752  0.13534329  0.97401551     0.01800
H1075       H  0.66960496  0.07549636  0.03770803     0.14800
H1076       H  0.63827097  0.17168420  0.95956231     0.14800
C1077       C  0.70111372  0.14869597  0.94874080     0.36500
C1078       C  0.60706762  0.09877391  0.04879073     0.36400
N1079       N  0.71998624  0.15928135  0.92845123    -0.43900
N1080       N  0.58860424  0.08875112  0.06973356    -0.43900
C1081       C  0.37523275  0.93677431  0.83774092    -0.00300
C1082       C  0.37766487  0.92443290  0.80406722    -0.12200
C1083       C  0.40904663  0.92334858  0.78666050     0.02000
C1084       C  0.43918729  0.93442807  0.80318619    -0.00400
C1085       C  0.43677927  0.94663924  0.83696006    -0.12100
C1086       C  0.40528630  0.94811048  0.85421934     0.01800
H1087       H  0.35478645  0.91570922  0.79108687     0.14800
H1088       H  0.45967171  0.95528466  0.85000893     0.14800
C1089       C  0.40490417  0.96042338  0.88911244     0.36500
C1090       C  0.40938980  0.90990839  0.75219811     0.36400
N1091       N  0.40468063  0.97026935  0.91708012    -0.43900
N1092       N  0.40941175  0.89908211  0.72460004    -0.43900
C1093       C  0.43774196  0.73610981  0.00374726    -0.00300
C1094       C  0.40896757  0.71921215  0.99080252    -0.12200
C1095       C  0.37627051  0.73419647  0.99264814     0.02000
C1096       C  0.37182874  0.76695216  0.00783308    -0.00400
C1097       C  0.40061849  0.78357971  0.02121765    -0.12100
C1098       C  0.43327997  0.76860198  0.01934185     0.01800
H1099       H  0.41199507  0.69418898  0.97901957     0.14800
H1100       H  0.39771843  0.80855812  0.03319091     0.14800
C1101       C  0.46139570  0.78694322  0.03447805     0.36500
C1102       C  0.34801354  0.71488101  0.97911311     0.36400
N1103       N  0.48379976  0.80175894  0.04668220    -0.43900
N1104       N  0.32563699  0.69901837  0.96825028    -0.43900
C1105       C  0.42890233  0.13891191  0.00159332    -0.00300
C1106       C  0.42687718  0.10295110  0.00415895    -0.12200
C1107       C  0.39523816  0.08630029  0.00469440     0.02000
C1108       C  0.36444281  0.10575487  0.00270086    -0.00400
C1109       C  0.36649998  0.14171049  0.99948644    -0.12100
C1110       C  0.39817460  0.15833918  0.99878400     0.01800
H1111       H  0.45017335  0.08766372  0.00620712     0.14800
H1112       H  0.34322902  0.15701184  0.99739056     0.14800
C1113       C  0.39818448  0.19527545  0.99445160     0.36500
C1114       C  0.39547305  0.04927772  0.00798840     0.36400
N1115       N  0.39825547  0.22485822  0.99090164    -0.43900
N1116       N  0.39581418  0.01960306  0.01061230    -0.43900
C1117       C  0.62108824  0.93523726  0.19885914    -0.00300
C1118       C  0.62800127  0.95983835  0.17341077    -0.12200
C1119       C  0.65993594  0.96082158  0.15708215     0.02000
C1120       C  0.68546980  0.93612907  0.16553650    -0.00400
C1121       C  0.67816123  0.91097678  0.19038160    -0.12100
C1122       C  0.64654809  0.91060428  0.20735705     0.01800
H1123       H  0.60863114  0.97893611  0.16681066     0.14800
H1124       H  0.69739725  0.89178198  0.19697335     0.14800
C1125       C  0.64082558  0.88423232  0.23288131     0.36500
C1126       C  0.66556159  0.98735564  0.13168178     0.36400
N1127       N  0.63645204  0.86308764  0.25336982    -0.43900
N1128       N  0.67026711  0.00869169  0.11146315    -0.43900
C1129       C  0.43120889  0.94377857  0.20498685    -0.00300
C1130       C  0.40310947  0.95243953  0.22591508    -0.12200
C1131       C  0.36970062  0.95321715  0.21299090     0.02000
C1132       C  0.36374699  0.94487156  0.17825381    -0.00400
C1133       C  0.39194002  0.93665125  0.15724534    -0.12100
C1134       C  0.42531841  0.93603289  0.17011786     0.01800
H1135       H  0.40719125  0.95872183  0.25268188     0.14800
H1136       H  0.38796457  0.93034950  0.13046056     0.14800
C1137       C  0.45270719  0.92672019  0.14688961     0.36500
C1138       C  0.34240399  0.96279273  0.23619561     0.36400
N1139       N  0.47457943  0.91921249  0.12820893    -0.43900
N1140       N  0.32088694  0.97062561  0.25515492    -0.43900
C1141       C  0.22949003  0.94043175  0.40965989    -0.00300
C1142       C  0.20486758  0.96596083  0.40254650    -0.12200
C1143       C  0.18817041  0.96717982  0.37084840     0.02000
C1144       C  0.19568162  0.94204930  0.34571964    -0.00400
C1145       C  0.21993605  0.91615674  0.35314363    -0.12100
C1146       C  0.23692498  0.91524093  0.38470861     0.01800
H1147       H  0.19885555  0.98524818  0.42174380     0.14800
H1148       H  0.22560020  0.89649099  0.33426368     0.14800
C1149       C  0.26048393  0.88717116  0.39159932     0.36500
C1150       C  0.16277025  0.99389631  0.36532195     0.36400
N1151       N  0.27922466  0.86467652  0.39752233    -0.43900
N1152       N  0.14245217  0.01531854  0.36083166    -0.43900
C1153       C  0.22948292  0.94287836  0.59855546    -0.00300
C1154       C  0.24909299  0.95373292  0.62654304    -0.12200
C1155       C  0.23556563  0.95436182  0.65968889     0.02000
C1156       C  0.20157160  0.94375616  0.66549990    -0.00400
C1157       C  0.18165106  0.93352717  0.63745072    -0.12100
C1158       C  0.19518349  0.93300554  0.60419064     0.01800
H1159       H  0.27529271  0.96184786  0.62261010     0.14800
H1160       H  0.15544429  0.92546026  0.64152600     0.14800
C1161       C  0.17330180  0.92184377  0.57667937     0.36500
C1162       C  0.25714193  0.96677458  0.68688290     0.36400
N1163       N  0.15571707  0.91294188  0.55466115    -0.43900
N1164       N  0.27458854  0.97684831  0.70848625    -0.43900
C1165       C  0.35601175  0.77715487  0.50692337    -0.00300
C1166       C  0.32095449  0.78033332  0.49935046    -0.12200
C1167       C  0.30434385  0.81248137  0.49899586     0.02000
C1168       C  0.32276336  0.84262033  0.50662204    -0.00400
C1169       C  0.35781662  0.83954744  0.51410622    -0.12100
C1170       C  0.37452826  0.80740586  0.51424009     0.01800
H1171       H  0.30635642  0.75758789  0.49335617     0.14800
H1172       H  0.37236358  0.86241342  0.51978607     0.14800
C1173       C  0.41080538  0.80672852  0.52122764     0.36500
C1174       C  0.26868619  0.81371925  0.48936069     0.36400
N1175       N  0.43990701  0.80655766  0.52669191    -0.43900
N1176       N  0.24016271  0.81484484  0.48146556    -0.43900
C1177       C  0.52316201  0.77832321  0.32751082    -0.00300
C1178       C  0.50696780  0.78295501  0.29569329    -0.12200
C1179       C  0.50693599  0.81511601  0.27902752     0.02000
C1180       C  0.52303932  0.84362570  0.29451528    -0.00400
C1181       C  0.53863679  0.83894668  0.32660216    -0.12100
C1182       C  0.53894033  0.80684891  0.34301726     0.01800
H1183       H  0.49444178  0.76128828  0.28367502     0.14800
H1184       H  0.55086924  0.86052606  0.33901979     0.14800
C1185       C  0.55434410  0.80433001  0.37656162     0.36500
C1186       C  0.48948315  0.81822252  0.24654218     0.36400
N1187       N  0.56645610  0.80209821  0.40353004    -0.43900
N1188       N  0.47548682  0.82085682  0.22052464    -0.43900
C1189       C  0.53096516  0.83719361  0.70831155    -0.00300
C1190       C  0.51502598  0.83458216  0.67621093    -0.12200
C1191       C  0.51219862  0.80283521  0.65968320     0.02000
C1192       C  0.52530404  0.77258363  0.67544893    -0.00400
C1193       C  0.54142309  0.77524478  0.70745542    -0.12100
C1194       C  0.54460731  0.80706744  0.72378504     0.01800
H1195       H  0.50466363  0.85743943  0.66389396     0.14800
H1196       H  0.55198500  0.75243285  0.71967054     0.14800
C1197       C  0.56325261  0.80798731  0.75568826     0.36500
C1198       C  0.49654185  0.80247533  0.62617060     0.36400
N1199       N  0.57845436  0.80869438  0.78110086    -0.43900
N1200       N  0.48416708  0.80207946  0.59924703    -0.43900
C1201       C  0.72981834  0.84379757  0.50215188    -0.00300
C1202       C  0.70450365  0.83790557  0.47749445    -0.12200
C1203       C  0.68777764  0.80627415  0.47578978     0.02000
C1204       C  0.69579178  0.77992511  0.49970458    -0.00400
C1205       C  0.72085744  0.78605505  0.52464305    -0.12100
C1206       C  0.73801291  0.81745419  0.52591494     0.01800
H1207       H  0.69819843  0.85787516  0.45901811     0.14800
H1208       H  0.72719825  0.76621402  0.54323136     0.14800
C1209       C  0.76311274  0.82218611  0.55256618     0.36500
C1210       C  0.66242841  0.80198931  0.44933481     0.36400
N1211       N  0.78318297  0.82595172  0.57396169    -0.43900
N1212       N  0.64232903  0.79876750  0.42788439    -0.43900
C1213       C  0.52920203  0.26762975  0.16033467    -0.00300
C1214       C  0.54363086  0.23460994  0.15723450    -0.12200
C1215       C  0.54343913  0.21732023  0.12577756     0.02000
C1216       C  0.52891376  0.23335519  0.09651661    -0.00400
C1217       C  0.51542748  0.26684288  0.09947526    -0.12100
C1218       C  0.51539867  0.28397091  0.13098170     0.01800
H1219       H  0.55479085  0.22214776  0.17951994     0.14800
H1220       H  0.50467598  0.27965196  0.07715948     0.14800
C1221       C  0.50267831  0.31896278  0.13213322     0.36500
C1222       C  0.55926186  0.18361959  0.12417251     0.36400
N1223       N  0.49289414  0.34713342  0.13326629    -0.43900
N1224       N  0.57201754  0.15664603  0.12289861    -0.43900
C1225       C  0.35152617  0.43235679  0.16312063    -0.00300
C1226       C  0.32056570  0.45043518  0.15862424    -0.12200
C1227       C  0.30370384  0.45065140  0.12693958     0.02000
C1228       C  0.31848948  0.43346033  0.09856598    -0.00400
C1229       C  0.34913671  0.41492456  0.10320712    -0.12100
C1230       C  0.36535483  0.41369468  0.13517015     0.01800
H1231       H  0.30948726  0.46451997  0.17996568     0.14800
H1232       H  0.36042903  0.40113904  0.08177485     0.14800
C1233       C  0.39657740  0.39375061  0.13808178     0.36500
C1234       C  0.27187455  0.46965023  0.12409644     0.36400
N1235       N  0.42142653  0.37745848  0.14027010    -0.43900
N1236       N  0.24628667  0.48473610  0.12175387    -0.43900
C1237       C  0.73191345  0.44074213  0.09355660    -0.00300
C1238       C  0.69717803  0.44973386  0.09702673    -0.12200
C1239       C  0.68159770  0.45156301  0.12929008     0.02000
C1240       C  0.70087504  0.44435387  0.15909938    -0.00400
C1241       C  0.73535174  0.43459794  0.15576176    -0.12100
C1242       C  0.75103856  0.43281570  0.12345371     0.01800
H1243       H  0.68196708  0.45532436  0.07442831     0.14800
H1244       H  0.75015573  0.42851249  0.17852889     0.14800
C1245       C  0.78657364  0.42229972  0.12200446     0.36500
C1246       C  0.64537431  0.45922922  0.13077479     0.36400
N1247       N  0.81502257  0.41376957  0.12084453    -0.43900
N1248       N  0.61630051  0.46514991  0.13166756    -0.43900
C1249       C  0.53294948  0.64550998  0.09725335    -0.00300
C1250       C  0.54968468  0.61380523  0.10273421    -0.12200
C1251       C  0.55069978  0.59860698  0.13534835     0.02000
C1252       C  0.53425416  0.61497144  0.16326380    -0.00400
C1253       C  0.51767070  0.64665626  0.15794053    -0.12100
C1254       C  0.51720988  0.66222850  0.12548952     0.01800
H1255       H  0.56197592  0.60072926  0.08143420     0.14800
H1256       H  0.50498515  0.65931596  0.17926508     0.14800
C1257       C  0.49964163  0.69492471  0.12210901     0.36500
C1258       C  0.56715046  0.56533047  0.13892947     0.36400
N1259       N  0.48558462  0.72119022  0.11982966    -0.43900
N1260       N  0.58021808  0.53860747  0.14168087    -0.43900
C1261       C  0.12293756  0.43550023  0.30327707    -0.00300
C1262       C  0.15147531  0.44472909  0.28329197    -0.12200
C1263       C  0.18454199  0.44525742  0.29720849     0.02000
C1264       C  0.18974782  0.43604768  0.33197165    -0.00400
C1265       C  0.16125713  0.42682370  0.35187351    -0.12100
C1266       C  0.12820027  0.42669871  0.33813974     0.01800
H1267       H  0.14799727  0.45175150  0.25650904     0.14800
H1268       H  0.16471754  0.41985589  0.37876979     0.14800
C1269       C  0.10041765  0.41750940  0.36074953     0.36500
C1270       C  0.21248095  0.45521180  0.27507688     0.36400
N1271       N  0.07836679  0.41025365  0.37919466    -0.43900
N1272       N  0.23490901  0.46323461  0.25741948    -0.43900
C1273       C  0.19228444  0.26348624  0.49807047    -0.00300
C1274       C  0.16497491  0.28096332  0.48197044    -0.12200
C1275       C  0.13204193  0.26720962  0.48149489     0.02000
C1276       C  0.12568983  0.23543069  0.49779375    -0.00400
C1277       C  0.15296325  0.21763073  0.51344791    -0.12100
C1278       C  0.18604453  0.23116801  0.51362471     0.01800
H1279       H  0.16931643  0.30549094  0.46941449     0.14800
H1280       H  0.14842187  0.19297814  0.52570053     0.14800
C1281       C  0.21286880  0.21090280  0.52953421     0.36500
C1282       C  0.10576958  0.28535923  0.46246505     0.36400
N1283       N  0.23418232  0.19438504  0.54224714    -0.43900
N1284       N  0.08473377  0.29960795  0.44692958    -0.43900
C1285       C  0.18664978  0.43924410  0.67651606    -0.00300
C1286       C  0.17806720  0.41360227  0.70046155    -0.12200
C1287       C  0.14602838  0.41357730  0.71666373     0.02000
C1288       C  0.12144388  0.43912655  0.70835171    -0.00400
C1289       C  0.12994457  0.46483073  0.68455891    -0.12100
C1290       C  0.16230278  0.46546457  0.66902508     0.01800
H1291       H  0.19640723  0.39341651  0.70655409     0.14800
H1292       H  0.11136187  0.48478637  0.67840563     0.14800
C1293       C  0.16932936  0.49310838  0.64521553     0.36500
C1294       C  0.13872967  0.38632865  0.74080044     0.36400
N1295       N  0.17489086  0.51540301  0.62629517    -0.43900
N1296       N  0.13300372  0.36447889  0.76017029    -0.43900
C1297       C  0.18606267  0.61112086  0.50759647    -0.00300
C1298       C  0.15990224  0.59746989  0.52815591    -0.12200
C1299       C  0.12689659  0.61189760  0.52787277     0.02000
C1300       C  0.11981558  0.64102152  0.50714614    -0.00400
C1301       C  0.14626559  0.65521383  0.48736121    -0.12100
C1302       C  0.17906054  0.64041938  0.48719223     0.01800
H1303       H  0.16502530  0.57495940  0.54389526     0.14800
H1304       H  0.14121819  0.67769963  0.47158308     0.14800
C1305       C  0.20519519  0.65631459  0.46642058     0.36500
C1306       C  0.10112633  0.59663005  0.54958729     0.36400
N1307       N  0.22620691  0.66900925  0.44982606    -0.43900
N1308       N  0.08052113  0.58432684  0.56698659    -0.43900
C1309       C  0.53276280  0.10094366  0.32922875    -0.00300
C1310       C  0.54581462  0.09778725  0.29575480    -0.12200
C1311       C  0.54586351  0.06610727  0.27864429     0.02000
C1312       C  0.53302844  0.03644705  0.29529036    -0.00400
C1313       C  0.52038561  0.03955042  0.32884080    -0.12100
C1314       C  0.51966334  0.07127820  0.34566373     0.01800
H1315       H  0.55594161  0.12018892  0.28274378     0.14800
H1316       H  0.51009888  0.01715811  0.34179559     0.14800
C1317       C  0.50414495  0.07247566  0.37929326     0.36500
C1318       C  0.55985974  0.06500875  0.24434614     0.36400
N1319       N  0.49138541  0.07337571  0.40609415    -0.43900
N1320       N  0.57116080  0.06463196  0.21688384    -0.43900
C1321       C  0.32807240  0.03298712  0.50204902    -0.00300
C1322       C  0.30860985  0.06351786  0.49927082    -0.12200
C1323       C  0.32426372  0.09576939  0.49874429     0.02000
C1324       C  0.36026096  0.09796496  0.50096167    -0.00400
C1325       C  0.37972373  0.06753193  0.50373411    -0.12100
C1326       C  0.36410034  0.03530493  0.50455420     0.01800
H1327       H  0.28097382  0.06227795  0.49729051     0.14800
H1328       H  0.40736945  0.06889836  0.50566006     0.14800
C1329       C  0.38586866  0.00525777  0.50818174     0.36500
C1330       C  0.30277664  0.12596066  0.49453405     0.36400
N1331       N  0.40323977  0.98113751  0.51120877    -0.43900
N1332       N  0.28557190  0.15012973  0.49098244    -0.43900
C1333       C  0.53455194  0.09418562  0.67790351    -0.00300
C1334       C  0.55504955  0.06766823  0.66419372    -0.12200
C1335       C  0.55508262  0.03463996  0.67861904     0.02000
C1336       C  0.53482293  0.02787682  0.70785369    -0.00400
C1337       C  0.51480562  0.05449750  0.72193611    -0.12100
C1338       C  0.51426189  0.08735757  0.70713132     0.01800
H1339       H  0.57063384  0.07254987  0.64167495     0.14800
H1340       H  0.49922884  0.04953518  0.74443933     0.14800
C1341       C  0.49329544  0.11363213  0.72305473     0.36500
C1342       C  0.57669904  0.00845323  0.66336179     0.36400
N1343       N  0.47646305  0.13456612  0.73598161    -0.43900
N1344       N  0.59390357  0.98731492  0.65126138    -0.43900
C1345       C  0.73797006  0.03426521  0.50256916    -0.00300
C1346       C  0.75091615  0.06015573  0.48097210    -0.12200
C1347       C  0.73658099  0.09341744  0.48080232     0.02000
C1348       C  0.70911973  0.10148688  0.50308350    -0.00400
C1349       C  0.69705027  0.07596815  0.52551349    -0.12100
C1350       C  0.71090945  0.04261855  0.52529141     0.01800
H1351       H  0.77186549  0.05424337  0.46365060     0.14800
H1352       H  0.67600742  0.08181956  0.54280251     0.14800
C1353       C  0.69703741  0.01784394  0.54912792     0.36500
C1354       C  0.75073924  0.11876085  0.45775110     0.36400
N1355       N  0.68570876  0.99821865  0.56833953    -0.43900
N1356       N  0.76194323  0.13915304  0.43927668    -0.43900
loop_ 
_geom_bond_atom_site_label_1 
_geom_bond_atom_site_label_2 
_geom_bond_distance 
_geom_bond_site_symmetry_2 
_ccdc_geom_bond_type 
In1           O3   2.260       .  S
In1           O4   2.246       .  S
In1          O12   2.253       .  S
In1           O6   2.244       .  S
In1           O8   2.227       .  S
In1           O9   2.257       .  S
In1          O10   2.264       .  S
In1          O13   2.250       .  S
C2            O8   1.258       .  A
C2           O10   1.262       .  A
C2           C20   1.461       .  S
O3           C11   1.260       .  A
O4           C11   1.259       .  A
C5           O12   1.260       .  A
C5            O6   1.259       .  A
C5         C1348   1.483       .  S
C7            O9   1.260       .  A
C7           O13   1.258       .  A
C7           C41   1.466       .  S
C11         C674   1.467       .  S
In14         O16   2.235       .  S
In14         O17   2.246       .  S
In14         O25   2.242       .  S
In14         O19   2.246       .  S
In14         O21   2.241       .  S
In14         O22   2.264       .  S
In14         O23   2.245       .  S
In14         O26   2.225       .  S
C15          O21   1.258       .  A
C15          O23   1.259       .  A
C15          C33   1.459       .  S
O16          C24   1.259       .  A
O17          C24   1.262       .  A
C18          O25   1.259       .  A
C18          O19   1.260       .  A
C18        C1333   1.479       .  S
C20          O22   1.261       .  A
C20          O26   1.257       .  A
C24         C349   1.461       .  S
In27         O29   2.237       .  S
In27         O30   2.235       .  S
In27         O38   2.244       .  S
In27         O32   2.239       .  S
In27         O34   2.258       .  S
In27         O35   2.252       .  S
In27         O36   2.238       .  S
In27         O39   2.247       .  S
C28          O34   1.259       .  A
C28          O36   1.257       .  A
C28          C46   1.461       .  S
O29          C37   1.260       .  A
O30          C37   1.261       .  A
C31          O38   1.261       .  A
C31          O32   1.262       .  A
C31        C1324   1.481       .  S
C33          O35   1.258       .  A
C33          O39   1.257       .  A
C37          C89   1.457       .  S
In40         O42   2.246       .  S
In40         O43   2.253       .  S
In40         O51   2.257       .  S
In40         O45   2.231       .  S
In40         O47   2.257       .  S
In40         O48   2.236       .  S
In40         O49   2.254       .  S
In40         O52   2.259       .  S
C41          O47   1.259       .  A
C41          O49   1.258       .  A
O42          C50   1.259       .  A
O43          C50   1.260       .  A
C44          O51   1.263       .  A
C44          O45   1.260       .  A
C44        C1309   1.488       .  S
C46          O48   1.257       .  A
C46          O52   1.259       .  A
C50         C154   1.464       .  S
In53         O55   2.242       .  S
In53         O56   2.256       .  S
In53         O64   2.251       .  S
In53         O58   2.240       .  S
In53         O60   2.238       .  S
In53         O61   2.258       .  S
In53         O62   2.251       .  S
In53         O65   2.229       .  S
C54          O60   1.258       .  A
C54          O62   1.261       .  A
C54          C98   1.461       .  S
O55          C63   1.260       .  A
O56          C63   1.261       .  A
C57          O64   1.259       .  A
C57          O58   1.259       .  A
C57        C1297   1.478       .  S
C59          O61   1.260       .  A
C59          O65   1.258       .  A
C59          C76   1.459       .  S
C63         C206   1.466       .  S
In66         O68   2.225       .  S
In66         O69   2.258       .  S
In66         O77   2.241       .  S
In66         O71   2.250       .  S
In66         O73   2.243       .  S
In66         O74   2.247       .  S
In66         O75   2.244       .  S
In66         O78   2.248       .  S
C67          O73   1.259       .  A
C67          O75   1.260       .  A
C67          C80   1.461       .  S
O68          C76   1.258       .  A
O69          C76   1.262       .  A
C70          O77   1.258       .  A
C70          O71   1.261       .  A
C70        C1285   1.485       .  S
C72          O74   1.260       .  A
C72          O78   1.259       .  A
C72         C362   1.463       .  S
In79         O81   2.238       .  S
In79         O82   2.247       .  S
In79         O90   2.250       .  S
In79         O84   2.235       .  S
In79         O86   2.251       .  S
In79         O87   2.235       .  S
In79         O88   2.243       .  S
In79         O91   2.258       .  S
C80          O86   1.259       .  A
C80          O88   1.258       .  A
O81          C89   1.257       .  A
O82          C89   1.258       .  A
C83          O90   1.262       .  A
C83          O84   1.261       .  A
C83        C1273   1.485       .  S
C85          O87   1.258       .  A
C85          O91   1.260       .  A
C85          C93   1.461       .  S
In92         O94   2.250       .  S
In92         O95   2.245       .  S
In92        O103   2.244       .  S
In92         O97   2.250       .  S
In92         O99   2.260       .  S
In92        O100   2.252       .  S
In92        O101   2.236       .  S
In92        O104   2.244       .  S
C93          O99   1.260       .  A
C93         O101   1.257       .  A
O94         C102   1.260       .  A
O95         C102   1.259       .  A
C96         O103   1.261       .  A
C96          O97   1.261       .  A
C96        C1264   1.488       .  S
C98         O100   1.259       .  A
C98         O104   1.259       .  A
C102        C141   1.464       .  S
In105       O107   2.254       .  S
In105       O108   2.245       .  S
In105       O116   2.253       .  S
In105       O110   2.245       .  S
In105       O112   2.222       .  S
In105       O113   2.251       .  S
In105       O114   2.259       .  S
In105       O117   2.245       .  S
C106        O112   1.258       .  A
C106        O114   1.262       .  A
C106        C124   1.460       .  S
O107        C115   1.259       .  A
O108        C115   1.258       .  A
C109        O116   1.260       .  A
C109        O110   1.257       .  A
C109       C1252   1.477       .  S
C111        O113   1.261       .  A
C111        O117   1.260       .  A
C111        C132   1.464       .  S
C115        C193   1.463       .  S
In118       O120   2.234       .  S
In118       O121   2.255       .  S
In118       O129   2.244       .  S
In118       O123   2.255       .  S
In118       O125   2.239       .  S
In118       O126   2.261       .  S
In118       O127   2.250       .  S
In118       O130   2.223       .  S
C119        O125   1.257       .  A
C119        O127   1.258       .  A
C119        C150   1.459       .  S
O120        C128   1.260       .  A
O121        C128   1.262       .  A
C122        O129   1.258       .  A
C122        O123   1.259       .  A
C122       C1240   1.477       .  S
C124        O126   1.262       .  A
C124        O130   1.258       .  A
C128        C657   1.464       .  S
In131       O133   2.249       .  S
In131       O134   2.250       .  S
In131       O142   2.248       .  S
In131       O136   2.261       .  S
In131       O138   2.251       .  S
In131       O139   2.259       .  S
In131       O140   2.255       .  S
In131       O143   2.231       .  S
C132        O138   1.259       .  A
C132        O140   1.259       .  A
O133        C141   1.259       .  A
O134        C141   1.259       .  A
C135        O142   1.257       .  A
C135        O136   1.260       .  A
C135       C1225   1.483       .  S
C137        O139   1.263       .  A
C137        O143   1.260       .  A
C137        C145   1.464       .  S
In144       O146   2.251       .  S
In144       O147   2.243       .  S
In144       O155   2.258       .  S
In144       O149   2.241       .  S
In144       O151   2.234       .  S
In144       O152   2.251       .  S
In144       O153   2.263       .  S
In144       O156   2.240       .  S
C145        O151   1.259       .  A
C145        O153   1.262       .  A
O146        C154   1.261       .  A
O147        C154   1.259       .  A
C148        O155   1.260       .  A
C148        O149   1.258       .  A
C148       C1213   1.478       .  S
C150        O152   1.259       .  A
C150        O156   1.258       .  A
In157       O159   2.250       .  S
In157       O160   2.247       .  S
In157       O168   2.244       .  S
In157       O162   2.248       .  S
In157       O164   2.234       .  S
In157       O165   2.249       .  S
In157       O166   2.265       .  S
In157       O169   2.231       .  S
C158        O164   1.258       .  A
C158        O166   1.262       .  A
C158        C189   1.465       .  S
O159        C167   1.261       .  A
O160        C167   1.260       .  A
C161        O168   1.259       .  A
C161        O162   1.258       .  A
C161       C1204   1.483       .  S
C163        O165   1.261       .  A
C163        O169   1.258       .  A
C163        C180   1.458       .  S
C167        C635   1.465       .  S
In170       O172   2.238       .  S
In170       O173   2.250       .  S
In170       O181   2.256       .  S
In170       O175   2.232       .  S
In170       O177   2.255       .  S
In170       O178   2.244       .  S
In170       O179   2.236       .  S
In170       O182   2.246       .  S
C171        O177   1.261       .  A
C171        O179   1.259       .  A
C171        C197   1.463       .  S
O172        C180   1.258       .  A
O173        C180   1.259       .  A
C174        O181   1.262       .  A
C174        O175   1.259       .  A
C174       C1192   1.485       .  S
C176        O178   1.258       .  A
C176        O182   1.259       .  A
C176        C371   1.461       .  S
In183       O185   2.243       .  S
In183       O186   2.250       .  S
In183       O194   2.239       .  S
In183       O188   2.272       .  S
In183       O190   2.250       .  S
In183       O191   2.265       .  S
In183       O192   2.251       .  S
In183       O195   2.235       .  S
C184        O190   1.260       .  A
C184        O192   1.260       .  A
C184        C202   1.466       .  S
O185        C193   1.259       .  A
O186        C193   1.260       .  A
C187        O194   1.258       .  A
C187        O188   1.260       .  A
C187       C1177   1.485       .  S
C189        O191   1.262       .  A
C189        O195   1.259       .  A
In196       O198   2.264       .  S
In196       O199   2.248       .  S
In196       O207   2.253       .  S
In196       O201   2.255       .  S
In196       O203   2.265       .  S
In196       O204   2.252       .  S
In196       O205   2.240       .  S
In196       O208   2.254       .  S
C197        O203   1.260       .  A
C197        O205   1.256       .  A
O198        C206   1.259       .  A
O199        C206   1.258       .  A
C200        O207   1.260       .  A
C200        O201   1.262       .  A
C200       C1165   1.492       .  S
C202        O204   1.260       .  A
C202        O208   1.260       .  A
In209       O211   2.243       .  S
In209       O212   2.254       .  S
In209       O220   2.237       .  S
In209       O214   2.241       .  S
In209       O216   2.243       .  S
In209       O217   2.237       .  S
In209       O218   2.227       .  S
In209       O221   2.245       .  S
C210        O216   1.260       .  A
C210        O218   1.259       .  A
C210       C1153   1.480       .  S
O211        C219   1.261       .  A
O212        C219   1.262       .  A
C213        O220   1.260       .  A
C213        O214   1.260       .  A
C213       C1141   1.476       .  S
C215        O217   1.260       .  A
C215        O221   1.260       .  A
C215       C1321   1.486   1_565  S
C219       C1168   1.489       .  S
In222       O224   2.247       .  S
In222       O225   2.252       .  S
In222       O233   2.241       .  S
In222       O227   2.247       .  S
In222       O229   2.236       .  S
In222       O230   2.252       .  S
In222       O231   2.239       .  S
In222       O234   2.253       .  S
C223        O229   1.261       .  A
C223        O231   1.262       .  A
C223       C1129   1.485       .  S
O224        C232   1.261       .  A
O225        C232   1.265       .  A
C226        O233   1.259       .  A
C226        O227   1.261       .  A
C226       C1117   1.478       .  S
C228        O230   1.262   1_545  A
C228        O234   1.258   1_545  A
C228       C1312   1.486       .  S
C232       C1180   1.490       .  S
In235       O237   2.252       .  S
In235       O238   2.252       .  S
In235       O246   2.257       .  S
In235       O240   2.230       .  S
In235       O242   2.261       .  S
In235       O243   2.252       .  S
In235       O244   2.245       .  S
In235       O247   2.256       .  S
C236        O242   1.260       .  A
C236        O244   1.258       .  A
C236        C267   1.465       .  S
O237        C245   1.260       .  A
O238        C245   1.260       .  A
C239        O246   1.262       .  A
C239        O240   1.261       .  A
C239       C1132   1.486       .  S
C241        O243   1.258       .  A
C241        O247   1.258       .  A
C241        C249   1.465   1_565  S
C245        C583   1.466       .  S
In248       O250   2.249       .  S
In248       O251   2.252   1_554  S
In248       O259   2.257       .  S
In248       O253   2.243       .  S
In248       O255   2.258       .  S
In248       O256   2.247   1_554  S
In248       O257   2.250       .  S
In248       O260   2.250   1_554  S
C249        O255   1.260       .  A
C249        O257   1.259       .  A
O250        C258   1.260       .  A
O251        C258   1.259   1_556  A
C252        O259   1.263       .  A
C252        O253   1.260       .  A
C252       C1108   1.489       .  S
C254        O256   1.257       .  A
C254        O260   1.258       .  A
C254        C275   1.460   1_545  S
C258        C479   1.464       .  S
In261       O263   2.228   1_554  S
In261       O264   2.263       .  S
In261       O272   2.253   1_554  S
In261       O266   2.239       .  S
In261       O268   2.253   1_554  S
In261       O269   2.245       .  S
In261       O270   2.249   1_554  S
In261       O273   2.258       .  S
C262        O268   1.258       .  A
C262        O270   1.258       .  A
C262        C280   1.461       .  S
O263        C271   1.258   1_556  A
O264        C271   1.262       .  A
C265        O272   1.260   1_554  A
C265        O266   1.260       .  A
C265       C1096   1.485       .  S
C267        O269   1.259       .  A
C267        O273   1.260       .  A
C271        C440   1.464       .  S
In274       O276   2.253       .  S
In274       O277   2.248       .  S
In274       O285   2.257       .  S
In274       O279   2.245       .  S
In274       O281   2.244       .  S
In274       O282   2.245       .  S
In274       O283   2.243       .  S
In274       O286   2.250       .  S
C275        O281   1.260       .  A
C275        O283   1.259       .  A
O276        C284   1.259       .  A
O277        C284   1.259       .  A
C278        O285   1.262       .  A
C278        O279   1.258       .  A
C278       C1081   1.485       .  S
C280        O282   1.259       .  A
C280        O286   1.259       .  A
C284        C544   1.463       .  S
In287       O289   2.245       .  S
In287       O290   2.255   1_556  S
In287       O298   2.245   1_556  S
In287       O292   2.252       .  S
In287       O294   2.240       .  S
In287       O295   2.257   1_556  S
In287       O296   2.255       .  S
In287       O299   2.228   1_556  S
C288        O294   1.259       .  A
C288        O296   1.261       .  A
C288        C319   1.464   1_545  S
O289        C297   1.258       .  A
O290        C297   1.259   1_554  A
C291        O298   1.259   1_556  A
C291        O292   1.260       .  A
C291       C1069   1.483       .  S
C293        O295   1.262       .  A
C293        O299   1.259       .  A
C293        C301   1.461   1_545  S
C297        C505   1.463       .  S
In300       O302   2.249       .  S
In300       O303   2.247       .  S
In300       O311   2.251       .  S
In300       O305   2.236       .  S
In300       O307   2.232       .  S
In300       O308   2.247       .  S
In300       O309   2.259       .  S
In300       O312   2.235       .  S
C301        O307   1.258       .  A
C301        O309   1.260       .  A
O302        C310   1.259       .  A
O303        C310   1.259       .  A
C304        O311   1.261       .  A
C304        O305   1.259       .  A
C304       C1120   1.483       .  S
C306        O308   1.261       .  A
C306        O312   1.258       .  A
C306        C327   1.459       .  S
C310        C609   1.463       .  S
In313       O315   2.254       .  S
In313       O316   2.253       .  S
In313       O324   2.241       .  S
In313       O318   2.253       .  S
In313       O320   2.258       .  S
In313       O321   2.256       .  S
In313       O322   2.239       .  S
In313       O325   2.247       .  S
C314        O320   1.258       .  A
C314        O322   1.257       .  A
C314        C332   1.460       .  S
O315        C323   1.259       .  A
O316        C323   1.259       .  A
C317        O324   1.260       .  A
C317        O318   1.263       .  A
C317       C1057   1.488       .  S
C319        O321   1.260       .  A
C319        O325   1.259       .  A
C323        C557   1.466       .  S
In326       O328   2.239   1_556  S
In326       O329   2.247       .  S
In326       O337   2.247   1_556  S
In326       O331   2.241       .  S
In326       O333   2.245   1_556  S
In326       O334   2.233       .  S
In326       O335   2.247   1_556  S
In326       O338   2.256       .  S
C327        O333   1.258       .  A
C327        O335   1.258       .  A
O328        C336   1.258   1_554  A
O329        C336   1.259       .  A
C330        O337   1.263   1_556  A
C330        O331   1.261       .  A
C330       C1048   1.487       .  S
C332        O334   1.257       .  A
C332        O338   1.261       .  A
C336        C453   1.459       .  S
In339       O341   2.242       .  S
In339       O342   2.242       .  S
In339       O350   2.235       .  S
In339       O344   2.248       .  S
In339       O346   2.247       .  S
In339       O347   2.244       .  S
In339       O348   2.238       .  S
In339       O351   2.263       .  S
C340        O346   1.259       .  A
C340        O348   1.258       .  A
C340        C384   1.457       .  S
O341        C349   1.259       .  A
O342        C349   1.261       .  A
C343        O350   1.260       .  A
C343        O344   1.260       .  A
C343       C1033   1.483       .  S
C345        O347   1.258       .  A
C345        O351   1.260       .  A
C345        C353   1.465       .  S
In352       O354   2.250       .  S
In352       O355   2.241       .  S
In352       O363   2.245       .  S
In352       O357   2.239       .  S
In352       O359   2.261       .  S
In352       O360   2.241       .  S
In352       O361   2.241       .  S
In352       O364   2.244       .  S
C353        O359   1.261       .  A
C353        O361   1.258       .  A
O354        C362   1.261       .  A
O355        C362   1.259       .  A
C356        O363   1.259       .  A
C356        O357   1.260       .  A
C356       C1021   1.482       .  S
C358        O360   1.259       .  A
C358        O364   1.259       .  A
C358        C375   1.458       .  S
In365       O367   2.242       .  S
In365       O368   2.242       .  S
In365       O376   2.248       .  S
In365       O370   2.251       .  S
In365       O372   2.249       .  S
In365       O373   2.241       .  S
In365       O374   2.248       .  S
In365       O377   2.244       .  S
C366        O372   1.259       .  A
C366        O374   1.257       .  A
C366        C379   1.460       .  S
O367        C375   1.259       .  A
O368        C375   1.259       .  A
C369        O376   1.261       .  A
C369        O370   1.261       .  A
C369       C1009   1.488       .  S
C371        O373   1.260       .  A
C371        O377   1.261       .  A
In378       O380   2.247       .  S
In378       O381   2.242       .  S
In378       O389   2.236       .  S
In378       O383   2.232       .  S
In378       O385   2.244       .  S
In378       O386   2.240       .  S
In378       O387   2.245       .  S
In378       O390   2.242       .  S
C379        O385   1.259       .  A
C379        O387   1.259       .  A
O380        C388   1.260       .  A
O381        C388   1.259       .  A
C382        O389   1.260       .  A
C382        O383   1.260       .  A
C382        C997   1.480       .  S
C384        O386   1.260       .  A
C384        O390   1.258       .  A
C388        C648   1.462       .  S
In391       O393   2.242   1_554  S
In391       O394   2.247   1_554  S
In391       O402   2.242       .  S
In391       O396   2.241       .  S
In391       O398   2.242   1_554  S
In391       O399   2.246       .  S
In391       O400   2.239       .  S
In391       O403   2.236       .  S
C392        O398   1.261   1_554  A
C392        O400   1.260       .  A
C392        C973   1.481       .  S
O393        C401   1.259       .  A
O394        C401   1.261       .  A
C395        O402   1.260       .  A
C395        O396   1.262       .  A
C395        C985   1.487       .  S
C397        O399   1.263       .  A
C397        O403   1.261       .  A
C397       C1228   1.482       .  S
C401       C1024   1.484       .  S
In404       O406   2.238       .  S
In404       O407   2.248       .  S
In404       O415   2.247   1_554  S
In404       O409   2.247       .  S
In404       O411   2.255   1_554  S
In404       O412   2.235   1_554  S
In404       O413   2.240       .  S
In404       O416   2.237   1_554  S
C405        O411   1.262   1_554  A
C405        O413   1.259       .  A
C405       C1105   1.488       .  S
O406        C414   1.260       .  A
O407        C414   1.261       .  A
C408        O415   1.260   1_554  A
C408        O409   1.262       .  A
C408       C1072   1.482       .  S
C410        O412   1.262       .  A
C410        O416   1.262       .  A
C410       C1036   1.484       .  S
C414       C1216   1.482       .  S
In417       O419   2.246       .  S
In417       O420   2.242       .  S
In417       O428   2.252       .  S
In417       O422   2.233       .  S
In417       O424   2.252   1_455  S
In417       O425   2.231       .  S
In417       O426   2.243   1_455  S
In417       O429   2.263       .  S
C418        O424   1.259       .  A
C418        O426   1.258       .  A
C418        C449   1.460       .  S
O419        C427   1.259       .  A
O420        C427   1.260       .  A
C421        O428   1.262       .  A
C421        O422   1.260       .  A
C421        C961   1.486       .  S
C423        O425   1.257       .  A
C423        O429   1.260       .  A
C423        C431   1.461       .  S
C427        C622   1.461       .  S
In430       O432   2.265       .  S
In430       O433   2.235   1_554  S
In430       O441   2.254   1_554  S
In430       O435   2.234       .  S
In430       O437   2.259       .  S
In430       O438   2.259   1_554  S
In430       O439   2.231       .  S
In430       O442   2.238   1_554  S
C431        O437   1.261       .  A
C431        O439   1.258       .  A
O432        C440   1.260       .  A
O433        C440   1.258   1_556  A
C434        O441   1.262   1_554  A
C434        O435   1.259       .  A
C434        C988   1.484       .  S
C436        O438   1.260       .  A
C436        O442   1.257       .  A
C436        C457   1.461       .  S
In443       O445   2.243   1_554  S
In443       O446   2.238       .  S
In443       O454   2.229       .  S
In443       O448   2.241   1_554  S
In443       O450   2.222   1_554  S
In443       O451   2.244       .  S
In443       O452   2.249   1_554  S
In443       O455   2.246       .  S
C444        O450   1.259       .  A
C444        O452   1.261       .  A
C444        C462   1.456       .  S
O445        C453   1.260       .  A
O446        C453   1.260   1_554  A
C447        O454   1.261   1_556  A
C447        O448   1.260       .  A
C447        C949   1.476       .  S
C449        O451   1.259       .  A
C449        O455   1.258       .  A
In456       O458   2.238       .  S
In456       O459   2.251       .  S
In456       O467   2.234       .  S
In456       O461   2.249       .  S
In456       O463   2.235       .  S
In456       O464   2.252   1_455  S
In456       O465   2.255       .  S
In456       O468   2.222       .  S
C457        O463   1.259       .  A
C457        O465   1.260       .  A
O458        C466   1.258       .  A
O459        C466   1.258       .  A
C460        O467   1.259       .  A
C460        O461   1.262       .  A
C460        C937   1.480       .  S
C462        O464   1.262       .  A
C462        O468   1.258   1_655  A
C466        C570   1.460       .  S
In469       O471   2.259   1_554  S
In469       O472   2.244       .  S
In469       O480   2.251       .  S
In469       O474   2.238   1_554  S
In469       O476   2.263   1_554  S
In469       O477   2.246       .  S
In469       O478   2.232   1_554  S
In469       O481   2.251       .  S
C470        O476   1.262       .  A
C470        O478   1.258       .  A
C470        C514   1.462       .  S
O471        C479   1.260   1_556  A
O472        C479   1.257       .  A
C473        O480   1.260       .  A
C473        O474   1.260   1_554  A
C473        C976   1.484       .  S
C475        O477   1.258       .  A
C475        O481   1.259       .  A
C475        C483   1.461       .  S
In482       O484   2.239       .  S
In482       O485   2.252   1_455  S
In482       O493   2.238   1_455  S
In482       O487   2.251       .  S
In482       O489   2.247       .  S
In482       O490   2.267   1_455  S
In482       O491   2.251       .  S
In482       O494   2.233   1_455  S
C483        O489   1.257       .  A
C483        O491   1.259       .  A
O484        C492   1.259       .  A
O485        C492   1.260   1_655  A
C486        O493   1.261   1_455  A
C486        O487   1.261       .  A
C486        C925   1.484       .  S
C488        O490   1.261       .  A
C488        O494   1.259       .  A
C488        C496   1.465       .  S
C492        C596   1.463       .  S
In495       O497   2.253   1_556  S
In495       O498   2.241       .  S
In495       O506   2.255       .  S
In495       O500   2.229   1_556  S
In495       O502   2.232   1_556  S
In495       O503   2.254       .  S
In495       O504   2.268   1_556  S
In495       O507   2.247       .  S
C496        O502   1.258       .  A
C496        O504   1.262       .  A
O497        C505   1.260   1_554  A
O498        C505   1.258       .  A
C499        O506   1.261       .  A
C499        O500   1.259   1_556  A
C499        C916   1.476       .  S
C501        O503   1.258       .  A
C501        O507   1.257       .  A
C501        C509   1.462       .  S
In508       O510   2.251       .  S
In508       O511   2.244       .  S
In508       O519   2.247       .  S
In508       O513   2.236       .  S
In508       O515   2.247   1_455  S
In508       O516   2.231       .  S
In508       O517   2.250   1_455  S
In508       O520   2.262       .  S
C509        O515   1.258       .  A
C509        O517   1.259       .  A
O510        C518   1.260       .  A
O511        C518   1.259       .  A
C512        O519   1.263       .  A
C512        O513   1.259       .  A
C512        C904   1.483       .  S
C514        O516   1.257       .  A
C514        O520   1.260       .  A
C518        C531   1.462       .  S
In521       O523   2.243       .  S
In521       O524   2.245       .  S
In521       O532   2.243       .  S
In521       O526   2.242       .  S
In521       O528   2.261       .  S
In521       O529   2.245       .  S
In521       O530   2.237       .  S
In521       O533   2.255   1_455  S
C522        O528   1.260       .  A
C522        O530   1.256       .  A
C522        C540   1.461   1_545  S
O523        C531   1.260       .  A
O524        C531   1.260       .  A
C525        O532   1.263       .  A
C525        O526   1.262       .  A
C525        C889   1.487       .  S
C527        O529   1.256   1_655  A
C527        O533   1.258       .  A
C527        C548   1.460   1_545  S
In534       O536   2.246       .  S
In534       O537   2.251       .  S
In534       O545   2.232       .  S
In534       O539   2.234       .  S
In534       O541   2.252       .  S
In534       O542   2.241       .  S
In534       O543   2.234       .  S
In534       O546   2.259       .  S
C535        O541   1.259       .  A
C535        O543   1.258       .  A
C535        C566   1.458       .  S
O536        C544   1.258       .  A
O537        C544   1.259       .  A
C538        O545   1.262       .  A
C538        O539   1.261       .  A
C538       C1156   1.479       .  S
C540        O542   1.257       .  A
C540        O546   1.258       .  A
In547       O549   2.252       .  S
In547       O550   2.251       .  S
In547       O558   2.259       .  S
In547       O552   2.239       .  S
In547       O554   2.242       .  S
In547       O555   2.256       .  S
In547       O556   2.247       .  S
In547       O559   2.236       .  S
C548        O554   1.258       .  A
C548        O556   1.261       .  A
O549        C557   1.260       .  A
O550        C557   1.260       .  A
C551        O558   1.259       .  A
C551        O552   1.259       .  A
C551        C877   1.487       .  S
C553        O555   1.260       .  A
C553        O559   1.259       .  A
C553        C561   1.461       .  S
In560       O562   2.251       .  S
In560       O563   2.239       .  S
In560       O571   2.264       .  S
In560       O565   2.226       .  S
In560       O567   2.227       .  S
In560       O568   2.231       .  S
In560       O569   2.254   1_455  S
In560       O572   2.247       .  S
C561        O567   1.259   1_655  A
C561        O569   1.263       .  A
O562        C570   1.260       .  A
O563        C570   1.258       .  A
C564        O571   1.260       .  A
C564        O565   1.255       .  A
C564        C868   1.477       .  S
C566        O568   1.259       .  A
C566        O572   1.260       .  A
In573       O575   2.254       .  S
In573       O576   2.249       .  S
In573       O584   2.246       .  S
In573       O578   2.238       .  S
In573       O580   2.244       .  S
In573       O581   2.249       .  S
In573       O582   2.261       .  S
In573       O585   2.246       .  S
C574        O580   1.258       .  A
C574        O582   1.260       .  A
C574        C592   1.465   1_565  S
O575        C583   1.260       .  A
O576        C583   1.259       .  A
C577        O584   1.261       .  A
C577        O578   1.260       .  A
C577       C1144   1.481       .  S
C579        O581   1.259       .  A
C579        O585   1.258       .  A
C579        C613   1.461       .  S
In586       O588   2.255   1_455  S
In586       O589   2.238       .  S
In586       O597   2.255       .  S
In586       O591   2.230       .  S
In586       O593   2.250   1_455  S
In586       O594   2.263       .  S
In586       O595   2.239   1_455  S
In586       O598   2.249       .  S
C587        O593   1.259       .  A
C587        O595   1.259       .  A
C587        C605   1.460   1_545  S
O588        C596   1.260   1_655  A
O589        C596   1.258       .  A
C590        O597   1.263       .  A
C590        O591   1.259       .  A
C590        C856   1.482       .  S
C592        O594   1.258       .  A
C592        O598   1.257       .  A
In599       O601   2.246       .  S
In599       O602   2.253       .  S
In599       O610   2.241       .  S
In599       O604   2.249       .  S
In599       O606   2.258       .  S
In599       O607   2.238       .  S
In599       O608   2.237       .  S
In599       O611   2.254       .  S
C600        O606   1.260       .  A
C600        O608   1.257       .  A
C600        C618   1.461       .  S
O601        C609   1.258       .  A
O602        C609   1.259       .  A
C603        O610   1.262       .  A
C603        O604   1.261       .  A
C603        C844   1.488       .  S
C605        O607   1.258       .  A
C605        O611   1.260       .  A
In612       O614   2.239       .  S
In612       O615   2.252   1_455  S
In612       O623   2.255       .  S
In612       O617   2.235       .  S
In612       O619   2.247       .  S
In612       O620   2.237   1_455  S
In612       O621   2.247       .  S
In612       O624   2.258   1_455  S
C613        O619   1.259       .  A
C613        O621   1.259       .  A
O614        C622   1.258       .  A
O615        C622   1.261   1_655  A
C616        O623   1.262       .  A
C616        O617   1.259       .  A
C616        C829   1.488       .  S
C618        O620   1.257       .  A
C618        O624   1.260       .  A
In625       O627   2.251       .  S
In625       O628   2.254       .  S
In625       O636   2.240       .  S
In625       O630   2.261       .  S
In625       O632   2.251       .  S
In625       O633   2.247       .  S
In625       O634   2.253       .  S
In625       O637   2.258       .  S
C626        O632   1.258       .  A
C626        O634   1.260       .  A
C626        C644   1.463       .  S
O627        C635   1.259       .  A
O628        C635   1.259       .  A
C629        O636   1.259       .  A
C629        O630   1.263       .  A
C629        C817   1.491       .  S
C631        O633   1.258       .  A
C631        O637   1.259       .  A
C631        C661   1.464       .  S
In638       O640   2.247       .  S
In638       O641   2.247       .  S
In638       O649   2.259       .  S
In638       O643   2.238       .  S
In638       O645   2.269       .  S
In638       O646   2.247       .  S
In638       O647   2.241       .  S
In638       O650   2.249       .  S
C639        O645   1.260       .  A
C639        O647   1.257       .  A
C639        C670   1.466       .  S
O640        C648   1.259       .  A
O641        C648   1.258       .  A
C642        O649   1.261       .  A
C642        O643   1.260       .  A
C642        C805   1.488       .  S
C644        O646   1.260       .  A
C644        O650   1.260       .  A
In651       O653   2.259       .  S
In651       O654   2.246       .  S
In651       O662   2.246       .  S
In651       O656   2.237       .  S
In651       O658   2.258       .  S
In651       O659   2.261       .  S
In651       O660   2.250       .  S
In651       O663   2.238       .  S
C652        O658   1.259       .  A
C652        O660   1.260       .  A
C652        C665   1.466       .  S
O653        C661   1.260       .  A
O654        C661   1.258       .  A
C655        O662   1.261       .  A
C655        O656   1.261       .  A
C655        C793   1.479       .  S
C657        O659   1.260       .  A
C657        O663   1.258       .  A
In664       O666   2.247       .  S
In664       O667   2.263       .  S
In664       O675   2.262       .  S
In664       O669   2.241       .  S
In664       O671   2.257       .  S
In664       O672   2.242       .  S
In664       O673   2.249       .  S
In664       O676   2.268       .  S
C665        O671   1.260       .  A
C665        O673   1.260       .  A
O666        C674   1.258       .  A
O667        C674   1.260       .  A
C668        O675   1.261       .  A
C668        O669   1.260       .  A
C668        C781   1.487       .  S
C670        O672   1.257       .  A
C670        O676   1.261       .  A
In677       O679   2.239       .  S
In677       O680   2.246       .  S
In677       O688   2.239       .  S
In677       O682   2.243       .  S
In677       O684   2.246   1_455  S
In677       O685   2.241       .  S
In677       O686   2.250   1_455  S
In677       O689   2.242       .  S
C678        O684   1.262       .  A
C678        O686   1.261       .  A
C678        C784   1.489       .  S
O679        C687   1.260       .  A
O680        C687   1.262       .  A
C681        O688   1.259       .  A
C681        O682   1.262       .  A
C681       C1276   1.479       .  S
C683        O685   1.262       .  A
C683        O689   1.260       .  A
C683        C892   1.486       .  S
C687        C853   1.486       .  S
In690       O692   2.237       .  S
In690       O693   2.248       .  S
In690       O701   2.246       .  S
In690       O695   2.246       .  S
In690       O697   2.253   1_455  S
In690       O698   2.247       .  S
In690       O699   2.243   1_455  S
In690       O702   2.247       .  S
C691        O697   1.262       .  A
C691        O699   1.260       .  A
C691        C796   1.488       .  S
O692        C700   1.259       .  A
O693        C700   1.263       .  A
C694        O701   1.262       .  A
C694        O695   1.263       .  A
C694       C1261   1.490       .  S
C696        O698   1.262       .  A
C696        O702   1.260       .  A
C696        C928   1.483       .  S
C700        C964   1.487       .  S
In703       O705   2.249   1_455  S
In703       O706   2.251   1_455  S
In703       O714   2.242       .  S
In703       O708   2.256       .  S
In703       O710   2.248       .  S
In703       O711   2.239       .  S
In703       O712   2.236       .  S
In703       O715   2.233       .  S
C704        O710   1.264       .  A
C704        O712   1.259       .  A
C704        C865   1.480       .  S
O705        C713   1.259       .  A
O706        C713   1.261       .  A
C707        O714   1.259       .  A
C707        O708   1.263       .  A
C707        C832   1.488       .  S
C709        O711   1.263       .  A
C709        O715   1.262       .  A
C709       C1300   1.479       .  S
C713        C820   1.488       .  S
In716       O718   2.240       .  S
In716       O719   2.249       .  S
In716       O727   2.242   1_455  S
In716       O721   2.252   1_455  S
In716       O723   2.245       .  S
In716       O724   2.256       .  S
In716       O725   2.242       .  S
In716       O728   2.229       .  S
C717        O723   1.264       .  A
C717        O725   1.261       .  A
C717       C1288   1.479       .  S
O718        C726   1.259       .  A
O719        C726   1.262       .  A
C720        O727   1.260       .  A
C720        O721   1.262       .  A
C720        C808   1.487       .  S
C722        O724   1.264       .  A
C722        O728   1.259       .  A
C722        C901   1.487       .  S
C726        C940   1.480       .  S
In729       O731   2.238       .  S
In729       O732   2.252       .  S
In729       O740   2.233       .  S
In729       O734   2.254       .  S
In729       O736   2.253       .  S
In729       O737   2.246       .  S
In729       O738   2.239       .  S
In729       O741   2.249       .  S
C730        O736   1.263       .  A
C730        O738   1.259       .  A
C730        C841   1.489       .  S
O731        C739   1.258       .  A
O732        C739   1.261       .  A
C733        O740   1.260       .  A
C733        O734   1.263       .  A
C733        C880   1.478       .  S
C735        O737   1.262       .  A
C735        O741   1.261       .  A
C735       C1345   1.485   1_565  S
C739       C1201   1.479       .  S
In742       O744   2.228   1_556  S
In742       O745   2.239   1_556  S
In742       O753   2.234   1_556  S
In742       O747   2.253       .  S
In742       O749   2.236   1_556  S
In742       O750   2.237       .  S
In742       O751   2.236       .  S
In742       O754   2.224       .  S
C743        O749   1.263   1_556  A
C743        O751   1.259       .  A
C743        C913   1.478       .  S
O744        C752   1.260       .  A
O745        C752   1.264       .  A
C746        O753   1.260   1_556  A
C746        O747   1.261       .  A
C746        C952   1.482       .  S
C748        O750   1.262       .  A
C748        O754   1.261       .  A
C748       C1000   1.480       .  S
C752       C1237   1.484       .  S
In755       O757   2.249       .  S
In755       O758   2.254       .  S
In755       O766   2.230   1_556  S
In755       O760   2.253       .  S
In755       O762   2.239   1_556  S
In755       O763   2.252   1_556  S
In755       O764   2.238       .  S
In755       O767   2.241   1_556  S
C756        O762   1.261       .  A
C756        O764   1.261   1_554  A
C756       C1093   1.481       .  S
O757        C765   1.261       .  A
O758        C765   1.261       .  A
C759        O766   1.259   1_556  A
C759        O760   1.261       .  A
C759       C1045   1.482       .  S
C761        O763   1.263       .  A
C761        O767   1.259       .  A
C761       C1249   1.485       .  S
C765       C1012   1.491       .  S
In768       O770   2.237       .  S
In768       O771   2.248       .  S
In768       O779   2.238       .  S
In768       O773   2.252       .  S
In768       O775   2.254       .  S
In768       O776   2.235       .  S
In768       O777   2.238       .  S
In768       O780   2.236       .  S
C769        O775   1.263       .  A
C769        O777   1.260       .  A
C769       C1060   1.489       .  S
O770        C778   1.259       .  A
O771        C778   1.261       .  A
C772        O779   1.259       .  A
C772        O773   1.263       .  A
C772       C1084   1.486       .  S
C774        O776   1.261       .  A
C774        O780   1.261       .  A
C774       C1336   1.476   1_565  S
C778       C1189   1.484       .  S
C781        C782   1.404       .  A
C781        C786   1.414       .  A
C782        C783   1.400       .  A
C782        H787   1.085       .  S
C783        C784   1.415       .  A
C783        C790   1.444       .  S
C784        C785   1.408       .  A
C785        C786   1.404       .  A
C785        H788   1.084       .  S
C786        C789   1.444       .  S
C789        N791   1.157       .  T
C790        N792   1.157       .  T
C793        C794   1.402       .  A
C793        C798   1.412       .  A
C794        C795   1.399       .  A
C794        H799   1.085       .  S
C795        C796   1.416       .  A
C795        C802   1.443       .  S
C796        C797   1.409       .  A
C797        C798   1.402       .  A
C797        H800   1.084       .  S
C798        C801   1.445       .  S
C801        N803   1.158       .  T
C802        N804   1.157       .  T
C805        C806   1.405       .  A
C805        C810   1.415       .  A
C806        C807   1.399       .  A
C806        H811   1.086       .  S
C807        C808   1.414       .  A
C807        C814   1.444       .  S
C808        C809   1.407       .  A
C809        C810   1.402       .  A
C809        H812   1.086       .  S
C810        C813   1.444       .  S
C813        N815   1.158       .  T
C814        N816   1.157       .  T
C817        C818   1.406       .  A
C817        C822   1.417       .  A
C818        C819   1.403       .  A
C818        H823   1.083       .  S
C819        C820   1.415       .  A
C819        C826   1.444       .  S
C820        C821   1.404       .  A
C821        C822   1.401       .  A
C821        H824   1.084       .  S
C822        C825   1.444       .  S
C825        N827   1.157       .  T
C826        N828   1.157       .  T
C829        C830   1.405       .  A
C829        C834   1.417       .  A
C830        C831   1.402       .  A
C830        H835   1.085       .  S
C831        C832   1.416       .  A
C831        C838   1.444       .  S
C832        C833   1.404       .  A
C833        C834   1.401       .  A
C833        H836   1.086   1_455  S
C834        C837   1.445   1_455  S
C837        N839   1.158       .  T
C838        N840   1.157       .  T
C841        C842   1.406       .  A
C841        C846   1.416       .  A
C842        C843   1.403       .  A
C842        H847   1.084       .  S
C843        C844   1.416       .  A
C843        C850   1.444       .  S
C844        C845   1.404       .  A
C845        C846   1.399       .  A
C845        H848   1.084       .  S
C846        C849   1.444       .  S
C849        N851   1.157       .  T
C850        N852   1.157       .  T
C853        C854   1.405       .  A
C853        C858   1.417       .  A
C854        C855   1.400       .  A
C854        H859   1.084       .  S
C855        C856   1.414       .  A
C855        C862   1.445       .  S
C856        C857   1.403       .  A
C857        C858   1.401       .  A
C857        H860   1.084       .  S
C858        C861   1.444       .  S
C861        N863   1.157       .  T
C862        N864   1.158   1_455  T
C865        C866   1.402       .  A
C865        C870   1.416       .  A
C866        C867   1.398       .  A
C866        H871   1.086       .  S
C867        C868   1.414       .  A
C867        C874   1.445       .  S
C868        C869   1.402       .  A
C869        C870   1.402       .  A
C869        H872   1.085       .  S
C870        C873   1.444       .  S
C873        N875   1.157       .  T
C874        N876   1.157       .  T
C877        C878   1.406       .  A
C877        C882   1.417       .  A
C878        C879   1.398       .  A
C878        H883   1.086       .  S
C879        C880   1.410       .  A
C879        C886   1.445       .  S
C880        C881   1.403       .  A
C881        C882   1.404       .  A
C881        H884   1.086       .  S
C882        C885   1.444       .  S
C885        N887   1.158       .  T
C886        N888   1.157   1_565  T
C889        C890   1.405       .  A
C889        C894   1.415       .  A
C890        C891   1.400       .  A
C890        H895   1.084       .  S
C891        C892   1.415       .  A
C891        C898   1.444       .  S
C892        C893   1.405       .  A
C893        C894   1.400       .  A
C893        H896   1.085       .  S
C894        C897   1.444       .  S
C897        N899   1.157       .  T
C898        N900   1.157       .  T
C901        C902   1.405       .  A
C901        C906   1.417       .  A
C902        C903   1.402       .  A
C902        H907   1.086       .  S
C903        C904   1.416       .  A
C903        C910   1.445       .  S
C904        C905   1.402       .  A
C905        C906   1.399       .  A
C905        H908   1.085       .  S
C906        C909   1.444       .  S
C909        N911   1.157       .  T
C910        N912   1.158       .  T
C913        C914   1.401   1_556  A
C913        C918   1.416       .  A
C914        C915   1.396       .  A
C914        H919   1.086       .  S
C915        C916   1.412   1_554  A
C915        C922   1.443       .  S
C916        C917   1.402       .  A
C917        C918   1.402       .  A
C917        H920   1.085       .  S
C918        C921   1.444       .  S
C921        N923   1.158       .  T
C922        N924   1.157       .  T
C925        C926   1.406       .  A
C925        C930   1.414   1_455  A
C926        C927   1.404       .  A
C926        H931   1.083       .  S
C927        C928   1.414       .  A
C927        C934   1.444       .  S
C928        C929   1.403       .  A
C929        C930   1.399   1_455  A
C929        H932   1.083   1_455  S
C930        C933   1.443       .  S
C933        N935   1.157       .  T
C934        N936   1.157       .  T
C937        C938   1.405       .  A
C937        C942   1.412       .  A
C938        C939   1.399       .  A
C938        H943   1.085   1_455  S
C939        C940   1.412       .  A
C939        C946   1.444   1_455  S
C940        C941   1.405       .  A
C941        C942   1.401       .  A
C941        H944   1.085       .  S
C942        C945   1.444       .  S
C945        N947   1.157       .  T
C946        N948   1.157       .  T
C949        C950   1.403       .  A
C949        C954   1.410   1_556  A
C950        C951   1.401       .  A
C950        H955   1.085       .  S
C951        C952   1.415       .  A
C951        C958   1.444       .  S
C952        C953   1.406   1_556  A
C953        C954   1.398       .  A
C953        H956   1.084       .  S
C954        C957   1.445       .  S
C957        N959   1.157       .  T
C958        N960   1.157       .  T
C961        C962   1.404       .  A
C961        C966   1.416       .  A
C962        C963   1.401       .  A
C962        H967   1.086       .  S
C963        C964   1.417       .  A
C963        C970   1.445       .  S
C964        C965   1.404       .  A
C965        C966   1.400       .  A
C965        H968   1.086       .  S
C966        C969   1.445       .  S
C969        N971   1.157       .  T
C970        N972   1.158       .  T
C973        C974   1.405       .  A
C973        C978   1.413   1_554  A
C974        C975   1.401       .  A
C974        H979   1.085       .  S
C975        C976   1.415       .  A
C975        C982   1.444       .  S
C976        C977   1.405   1_554  A
C977        C978   1.398       .  A
C977        H980   1.085       .  S
C978        C981   1.444       .  S
C981        N983   1.157       .  T
C982        N984   1.157       .  T
C985        C986   1.405       .  A
C985        C990   1.416   1_554  A
C986        C987   1.400       .  A
C986        H991   1.086       .  S
C987        C988   1.415       .  A
C987        C994   1.445       .  S
C988        C989   1.404   1_554  A
C989        C990   1.401       .  A
C989        H992   1.085       .  S
C990        C993   1.444       .  S
C993        N995   1.157       .  T
C994        N996   1.158       .  T
C997        C998   1.406       .  A
C997       C1002   1.414       .  A
C998        C999   1.399       .  A
C998       H1003   1.087       .  S
C999       C1000   1.413       .  A
C999       C1006   1.444       .  S
C1000      C1001   1.404       .  A
C1001      C1002   1.396       .  A
C1001      H1004   1.087       .  S
C1002      C1005   1.445       .  S
C1005      N1007   1.157       .  T
C1006      N1008   1.157       .  T
C1009      C1010   1.406       .  A
C1009      C1014   1.415       .  A
C1010      C1011   1.403       .  A
C1010      H1015   1.085       .  S
C1011      C1012   1.416       .  A
C1011      C1018   1.444       .  S
C1012      C1013   1.406       .  A
C1013      C1014   1.402       .  A
C1013      H1016   1.085       .  S
C1014      C1017   1.445       .  S
C1017      N1019   1.157       .  T
C1018      N1020   1.157       .  T
C1021      C1022   1.404       .  A
C1021      C1026   1.414       .  A
C1022      C1023   1.399       .  A
C1022      H1027   1.085       .  S
C1023      C1024   1.414       .  A
C1023      C1030   1.444       .  S
C1024      C1025   1.406       .  A
C1025      C1026   1.400       .  A
C1025      H1028   1.084       .  S
C1026      C1029   1.445       .  S
C1029      N1031   1.158       .  T
C1030      N1032   1.157       .  T
C1033      C1034   1.404       .  A
C1033      C1038   1.414       .  A
C1034      C1035   1.398       .  A
C1034      H1039   1.084       .  S
C1035      C1036   1.415       .  A
C1035      C1042   1.444       .  S
C1036      C1037   1.406       .  A
C1037      C1038   1.400       .  A
C1037      H1040   1.084       .  S
C1038      C1041   1.445       .  S
C1041      N1043   1.158       .  T
C1042      N1044   1.157       .  T
C1045      C1046   1.404       .  A
C1045      C1050   1.413   1_556  A
C1046      C1047   1.402       .  A
C1046      H1051   1.085       .  S
C1047      C1048   1.417       .  A
C1047      C1054   1.445       .  S
C1048      C1049   1.405   1_556  A
C1049      C1050   1.399       .  A
C1049      H1052   1.084       .  S
C1050      C1053   1.445       .  S
C1053      N1055   1.157       .  T
C1054      N1056   1.158       .  T
C1057      C1058   1.404       .  A
C1057      C1062   1.416       .  A
C1058      C1059   1.401       .  A
C1058      H1063   1.084       .  S
C1059      C1060   1.416       .  A
C1059      C1066   1.444       .  S
C1060      C1061   1.405       .  A
C1061      C1062   1.402       .  A
C1061      H1064   1.084       .  S
C1062      C1065   1.445       .  S
C1065      N1067   1.157       .  T
C1066      N1068   1.157       .  T
C1069      C1070   1.405   1_556  A
C1069      C1074   1.413       .  A
C1070      C1071   1.401       .  A
C1070      H1075   1.083       .  S
C1071      C1072   1.412       .  A
C1071      C1078   1.444       .  S
C1072      C1073   1.405   1_554  A
C1073      C1074   1.402       .  A
C1073      H1076   1.083       .  S
C1074      C1077   1.444       .  S
C1077      N1079   1.157       .  T
C1078      N1080   1.157       .  T
C1081      C1082   1.403       .  A
C1081      C1086   1.415       .  A
C1082      C1083   1.400       .  A
C1082      H1087   1.087       .  S
C1083      C1084   1.416       .  A
C1083      C1090   1.444       .  S
C1084      C1085   1.405       .  A
C1085      C1086   1.402       .  A
C1085      H1088   1.087       .  S
C1086      C1089   1.444       .  S
C1089      N1091   1.157       .  T
C1090      N1092   1.157       .  T
C1093      C1094   1.404   1_554  A
C1093      C1098   1.413       .  A
C1094      C1095   1.400       .  A
C1094      H1099   1.083       .  S
C1095      C1096   1.415   1_556  A
C1095      C1102   1.444       .  S
C1096      C1097   1.406       .  A
C1097      C1098   1.399       .  A
C1097      H1100   1.084       .  S
C1098      C1101   1.445       .  S
C1101      N1103   1.157       .  T
C1102      N1104   1.157       .  T
C1105      C1106   1.404       .  A
C1105      C1110   1.416   1_554  A
C1106      C1107   1.401       .  A
C1106      H1111   1.085       .  S
C1107      C1108   1.416       .  A
C1107      C1114   1.444       .  S
C1108      C1109   1.406   1_554  A
C1109      C1110   1.402       .  A
C1109      H1112   1.084       .  S
C1110      C1113   1.445       .  S
C1113      N1115   1.158       .  T
C1114      N1116   1.157       .  T
C1117      C1118   1.403       .  A
C1117      C1122   1.412       .  A
C1118      C1119   1.400       .  A
C1118      H1123   1.085       .  S
C1119      C1120   1.416       .  A
C1119      C1126   1.445       .  S
C1120      C1121   1.404       .  A
C1121      C1122   1.400       .  A
C1121      H1124   1.084       .  S
C1122      C1125   1.444       .  S
C1125      N1127   1.157       .  T
C1126      N1128   1.158   1_565  T
C1129      C1130   1.405       .  A
C1129      C1134   1.414       .  A
C1130      C1131   1.401       .  A
C1130      H1135   1.086       .  S
C1131      C1132   1.415       .  A
C1131      C1138   1.444       .  S
C1132      C1133   1.406       .  A
C1133      C1134   1.399       .  A
C1133      H1136   1.086       .  S
C1134      C1137   1.444       .  S
C1137      N1139   1.157       .  T
C1138      N1140   1.157       .  T
C1141      C1142   1.402       .  A
C1141      C1146   1.411       .  A
C1142      C1143   1.400       .  A
C1142      H1147   1.085       .  S
C1143      C1144   1.415       .  A
C1143      C1150   1.445       .  S
C1144      C1145   1.405       .  A
C1145      C1146   1.400       .  A
C1145      H1148   1.084       .  S
C1146      C1149   1.445       .  S
C1149      N1151   1.157       .  T
C1150      N1152   1.157   1_565  T
C1153      C1154   1.404       .  A
C1153      C1158   1.414       .  A
C1154      C1155   1.395       .  A
C1154      H1159   1.085       .  S
C1155      C1156   1.412       .  A
C1155      C1162   1.444       .  S
C1156      C1157   1.405       .  A
C1157      C1158   1.400       .  A
C1157      H1160   1.085       .  S
C1158      C1161   1.445       .  S
C1161      N1163   1.158       .  T
C1162      N1164   1.157       .  T
C1165      C1166   1.406       .  A
C1165      C1170   1.417       .  A
C1166      C1167   1.402       .  A
C1166      H1171   1.084       .  S
C1167      C1168   1.414       .  A
C1167      C1174   1.444       .  S
C1168      C1169   1.405       .  A
C1169      C1170   1.403       .  A
C1169      H1172   1.084       .  S
C1170      C1173   1.444       .  S
C1173      N1175   1.157       .  T
C1174      N1176   1.157       .  T
C1177      C1178   1.404       .  A
C1177      C1182   1.413       .  A
C1178      C1179   1.406       .  A
C1178      H1183   1.087       .  S
C1179      C1180   1.418       .  A
C1179      C1186   1.444       .  S
C1180      C1181   1.404       .  A
C1181      C1182   1.400       .  A
C1181      H1184   1.086       .  S
C1182      C1185   1.444       .  S
C1185      N1187   1.157       .  T
C1186      N1188   1.158       .  T
C1189      C1190   1.404       .  A
C1189      C1194   1.415       .  A
C1190      C1191   1.400       .  A
C1190      H1195   1.083       .  S
C1191      C1192   1.416       .  A
C1191      C1198   1.445       .  S
C1192      C1193   1.404       .  A
C1193      C1194   1.401       .  A
C1193      H1196   1.083       .  S
C1194      C1197   1.444       .  S
C1197      N1199   1.157       .  T
C1198      N1200   1.157       .  T
C1201      C1202   1.403       .  A
C1201      C1206   1.413       .  A
C1202      C1203   1.400       .  A
C1202      H1207   1.084       .  S
C1203      C1204   1.415       .  A
C1203      C1210   1.443       .  S
C1204      C1205   1.405       .  A
C1205      C1206   1.400       .  A
C1205      H1208   1.083       .  S
C1206      C1209   1.445       .  S
C1209      N1211   1.157       .  T
C1210      N1212   1.157       .  T
C1213      C1214   1.402       .  A
C1213      C1218   1.412       .  A
C1214      C1215   1.401       .  A
C1214      H1219   1.083       .  S
C1215      C1216   1.415       .  A
C1215      C1222   1.444       .  S
C1216      C1217   1.404       .  A
C1217      C1218   1.400       .  A
C1217      H1220   1.084       .  S
C1218      C1221   1.444       .  S
C1221      N1223   1.157       .  T
C1222      N1224   1.157       .  T
C1225      C1226   1.404       .  A
C1225      C1230   1.415       .  A
C1226      C1227   1.402       .  A
C1226      H1231   1.085       .  S
C1227      C1228   1.414       .  A
C1227      C1234   1.444       .  S
C1228      C1229   1.403       .  A
C1229      C1230   1.400       .  A
C1229      H1232   1.085       .  S
C1230      C1233   1.443       .  S
C1233      N1235   1.157       .  T
C1234      N1236   1.157       .  T
C1237      C1238   1.404       .  A
C1237      C1242   1.418       .  A
C1238      C1239   1.398       .  A
C1238      H1243   1.084       .  S
C1239      C1240   1.412       .  A
C1239      C1246   1.444       .  S
C1240      C1241   1.401       .  A
C1241      C1242   1.401       .  A
C1241      H1244   1.085       .  S
C1242      C1245   1.444       .  S
C1245      N1247   1.157       .  T
C1246      N1248   1.157       .  T
C1249      C1250   1.405       .  A
C1249      C1254   1.417       .  A
C1250      C1251   1.401       .  A
C1250      H1255   1.084       .  S
C1251      C1252   1.413       .  A
C1251      C1258   1.445       .  S
C1252      C1253   1.400       .  A
C1253      C1254   1.401       .  A
C1253      H1256   1.084       .  S
C1254      C1257   1.444       .  S
C1257      N1259   1.157       .  T
C1258      N1260   1.157       .  T
C1261      C1262   1.407       .  A
C1261      C1266   1.416       .  A
C1262      C1263   1.403       .  A
C1262      H1267   1.087       .  S
C1263      C1264   1.415       .  A
C1263      C1270   1.445       .  S
C1264      C1265   1.404       .  A
C1265      C1266   1.400       .  A
C1265      H1268   1.091       .  S
C1266      C1269   1.444       .  S
C1269      N1271   1.157       .  T
C1270      N1272   1.158       .  T
C1273      C1274   1.407       .  A
C1273      C1278   1.416       .  A
C1274      C1275   1.399       .  A
C1274      H1279   1.085       .  S
C1275      C1276   1.411       .  A
C1275      C1282   1.444       .  S
C1276      C1277   1.404       .  A
C1277      C1278   1.401       .  A
C1277      H1280   1.085       .  S
C1278      C1281   1.444       .  S
C1281      N1283   1.157       .  T
C1282      N1284   1.157       .  T
C1285      C1286   1.405       .  A
C1285      C1290   1.417       .  A
C1286      C1287   1.401       .  A
C1286      H1291   1.083       .  S
C1287      C1288   1.412       .  A
C1287      C1294   1.444       .  S
C1288      C1289   1.402       .  A
C1289      C1290   1.401       .  A
C1289      H1292   1.083       .  S
C1290      C1293   1.445       .  S
C1293      N1295   1.158       .  T
C1294      N1296   1.157       .  T
C1297      C1298   1.404       .  A
C1297      C1302   1.411       .  A
C1298      C1299   1.401       .  A
C1298      H1303   1.084       .  S
C1299      C1300   1.413       .  A
C1299      C1306   1.445       .  S
C1300      C1301   1.404       .  A
C1301      C1302   1.399       .  A
C1301      H1304   1.083       .  S
C1302      C1305   1.444       .  S
C1305      N1307   1.157       .  T
C1306      N1308   1.157       .  T
C1309      C1310   1.406       .  A
C1309      C1314   1.416       .  A
C1310      C1311   1.403       .  A
C1310      H1315   1.084       .  S
C1311      C1312   1.416       .  A
C1311      C1318   1.444       .  S
C1312      C1313   1.403       .  A
C1313      C1314   1.399       .  A
C1313      H1316   1.085       .  S
C1314      C1317   1.444       .  S
C1317      N1319   1.157       .  T
C1318      N1320   1.158       .  T
C1321      C1322   1.407       .  A
C1321      C1326   1.415       .  A
C1322      C1323   1.401       .  A
C1322      H1327   1.084       .  S
C1323      C1324   1.413       .  A
C1323      C1330   1.445       .  S
C1324      C1325   1.403       .  A
C1325      C1326   1.399       .  A
C1325      H1328   1.085       .  S
C1326      C1329   1.444       .  S
C1329      N1331   1.157   1_545  T
C1330      N1332   1.157       .  T
C1333      C1334   1.405       .  A
C1333      C1338   1.413       .  A
C1334      C1335   1.399       .  A
C1334      H1339   1.085       .  S
C1335      C1336   1.412       .  A
C1335      C1342   1.445       .  S
C1336      C1337   1.403       .  A
C1337      C1338   1.399       .  A
C1337      H1340   1.084       .  S
C1338      C1341   1.444       .  S
C1341      N1343   1.157       .  T
C1342      N1344   1.157   1_545  T
C1345      C1346   1.407       .  A
C1345      C1350   1.414       .  A
C1346      C1347   1.403       .  A
C1346      H1351   1.083       .  S
C1347      C1348   1.413       .  A
C1347      C1354   1.444       .  S
C1348      C1349   1.404       .  A
C1349      C1350   1.400       .  A
C1349      H1352   1.085       .  S
C1350      C1353   1.444       .  S
C1353      N1355   1.157   1_545  T
C1354      N1356   1.157       .  T
