geometry optimzed in LAMMPS
_audit_creation_date              2020-12-01 
_audit_creation_method            'lammps2cif' 
_symmetry_space_group_name_H-M    'P1' 
_symmetry_Int_Tables_number       1 
_symmetry_cell_setting            triclinic 
loop_ 
_symmetry_equiv_pos_as_xyz 
  x,y,z 
_cell_length_a                    34.10687454 
_cell_length_b                    34.26347563743702 
_cell_length_c                    34.301241649925046 
_cell_angle_alpha                 89.87635062415261 
_cell_angle_beta                  89.78869311911451 
_cell_angle_gamma                 89.85301419984314 
loop_ 
_atom_site_label 
_atom_site_type_symbol 
_atom_site_fract_x 
_atom_site_fract_y 
_atom_site_fract_z 
_atom_site_charge 
O1          O  0.23670298  0.04511202  0.26374209    -0.82300
C2          C  0.25792415  0.95105704  0.13039853     0.97100
O3          O  0.22956360  0.97383095  0.13634103    -0.71400
O4          O  0.20513727  0.95088829  0.20517713    -0.75000
Al5        Al  0.21589078  0.00011047  0.18336904     1.49000
C6          C  0.20159503  0.94703358  0.24158281     0.92300
O7          O  0.30200488  0.95418520  0.25269106    -0.81200
O8          O  0.32449486  0.05003518  0.19561397    -0.74800
Al9        Al  0.26926219  0.99963220  0.25529413     1.90100
O10         O  0.33789698  0.97110168  0.20215471    -0.73800
O11         O  0.28031542  0.04037719  0.13511645    -0.73700
O12         O  0.29068127  0.95838621  0.14523235    -0.79300
O13         O  0.22255574  0.04924221  0.16144477    -0.77600
O14         O  0.26358603  0.00152034  0.20379575    -1.13700
O15         O  0.18978823  0.02596181  0.22474376    -0.72900
C16         C  0.20156107  0.04712498  0.25213920     0.97800
C17         C  0.33167674  0.94892600  0.23097640     0.94200
Al18       Al  0.30493277  0.00465900  0.17196077     1.55600
O19         O  0.22431603  0.96516981  0.26457593    -0.77500
C20         C  0.24992836  0.06132029  0.14008585     0.98400
C21         C  0.33075747  0.05583253  0.23123866     0.93300
O22         O  0.31427838  0.03437363  0.25667245    -0.82800
O23         O  0.77111751  0.95751187  0.26226124    -0.82300
C24         C  0.74515048  0.05161847  0.13095639     0.97100
O25         O  0.77000357  0.02434782  0.13166369    -0.71400
O26         O  0.80237278  0.04649272  0.19716687    -0.75000
Al27       Al  0.78641993  0.99776394  0.17801048     1.49000
C28         C  0.80717363  0.05334356  0.23299475     0.92300
O29         O  0.70760078  0.05003387  0.25474334    -0.81200
O30         O  0.67757493  0.95594898  0.19909809    -0.74800
Al31       Al  0.73923990  0.00352315  0.25461166     1.90100
O32         O  0.66763750  0.03484693  0.20744183    -0.73800
O33         O  0.71678925  0.96513168  0.13442467    -0.73700
O34         O  0.71283854  0.04690994  0.14810225    -0.79300
O35         O  0.77398868  0.94799107  0.15809716    -0.77600
O36         O  0.74080620  0.00054165  0.20285262    -1.13700
O37         O  0.81460169  0.97181437  0.21750644    -0.72900
C38         C  0.80508214  0.95376957  0.24791850     0.97800
C39         C  0.67641426  0.05630715  0.23592543     0.94200
Al40       Al  0.69717030  0.00070403  0.17441905     1.55600
O41         O  0.78536079  0.03715594  0.25851148    -0.77500
C42         C  0.74451397  0.94050107  0.13739387     0.98400
C43         C  0.67467613  0.94950075  0.23516221     0.93300
O44         O  0.69378194  0.96974492  0.25962988    -0.82800
O45         O  0.24526250  0.23815147  0.05470084    -0.82300
C46         C  0.11612217  0.27149414  0.95850479     0.97100
O47         O  0.11577320  0.24620885  0.98517828    -0.71400
O48         O  0.18094817  0.21018912  0.96432852    -0.75000
Al49       Al  0.16090581  0.22776103  0.01244404     1.49000
C50         C  0.21715248  0.20388239  0.95914683     0.92300
O51         O  0.24300487  0.30176469  0.96242562    -0.81200
O52         O  0.18671411  0.33535492  0.05423730    -0.74800
Al53       Al  0.24035659  0.27050367  0.00871130     1.90100
O54         O  0.19635314  0.34367808  0.97586742    -0.73800
O55         O  0.12055035  0.29982782  0.04524074    -0.73700
O56         O  0.13513029  0.30244540  0.96329748    -0.79300
O57         O  0.14090146  0.24146808  0.06178380    -0.77600
O58         O  0.18817355  0.27177114  0.01028043    -1.13700
O59         O  0.19800267  0.19816682  0.03914721    -0.72900
C60         C  0.22777372  0.20590752  0.05885851     0.97800
C61         C  0.22484358  0.33308478  0.95503643     0.94200
Al62       Al  0.16168873  0.31673379  0.00966118     1.55600
O63         O  0.24295500  0.22484046  0.97554096    -0.77500
C64         C  0.12350927  0.27275222  0.07034128     0.98400
C65         C  0.22272143  0.33585690  0.06214261     0.93300
O66         O  0.24678443  0.31524579  0.04264412    -0.82800
O67         O  0.24667919  0.76742417  0.96270534    -0.82300
C68         C  0.12057224  0.73536482  0.06360041     0.97100
O69         O  0.11989982  0.76245614  0.03870333    -0.71400
O70         O  0.18585148  0.79625604  0.05563684    -0.75000
Al71       Al  0.16359155  0.78021785  0.00853915     1.49000
C72         C  0.22191560  0.80314084  0.05893960     0.92300
O73         O  0.24478487  0.70489518  0.05573826    -0.81200
O74         O  0.18799005  0.67271843  0.96277378    -0.74800
Al75       Al  0.24239540  0.73578547  0.00912114     1.90100
O76         O  0.19848858  0.66300587  0.04136701    -0.73800
O77         O  0.12177921  0.70889221  0.97376531    -0.73700
O78         O  0.13712233  0.70365763  0.05542019    -0.79300
O79         O  0.14039852  0.76852627  0.96076182    -0.77600
O80         O  0.19006359  0.73550581  0.00848448    -1.13700
O81         O  0.20067410  0.80899990  0.97954529    -0.72900
C82         C  0.23075688  0.80070043  0.95999038     0.97800
C83         C  0.22686279  0.67329541  0.06245114     0.94200
Al84       Al  0.16327326  0.69076061  0.00833115     1.55600
O85         O  0.24710775  0.78213252  0.04148514    -0.77500
C86         C  0.12276067  0.73795711  0.95082538     0.98400
C87         C  0.22422340  0.67059361  0.95604194     0.93300
O88         O  0.24818590  0.69046029  0.97605641    -0.82800
O89         O  0.95667996  0.26319885  0.77241626    -0.82300
C90         C  0.04944292  0.13016472  0.74484638     0.97100
O91         O  0.02269582  0.13068023  0.77062059    -0.71400
O92         O  0.04045234  0.19491887  0.80595933    -0.75000
Al93       Al  0.99308060  0.17600289  0.78688578     1.49000
C94         C  0.04871579  0.23040976  0.81010096     0.92300
O95         O  0.04946143  0.25178943  0.70992380    -0.81200
O96         O  0.95289828  0.19818117  0.68047080    -0.74800
Al97       Al  0.00231397  0.25325015  0.74082680     1.90100
O98         O  0.03068574  0.20761176  0.66858313    -0.73800
O99         O  0.96384493  0.13223372  0.71635170    -0.73700
O100        O  0.04449169  0.14763772  0.71293786    -0.79300
O101        O  0.94360746  0.15573062  0.77201717    -0.77600
O102        O  0.99779348  0.20149153  0.74216732    -1.13700
O103        O  0.96511721  0.21533924  0.81395169    -0.72900
C104        C  0.95053248  0.24793612  0.80539694     0.97800
C105        C  0.05417261  0.23419419  0.67793848     0.94200
Al106      Al  0.99800991  0.17364040  0.69821484     1.55600
O107        O  0.03545094  0.25618990  0.78687995    -0.77500
C108        C  0.93754014  0.13518829  0.74227121     0.98400
C109        C  0.94687285  0.23430568  0.67709572     0.93300
O110        O  0.96824847  0.25875369  0.69526310    -0.82800
O111        O  0.04233787  0.26543211  0.24816346    -0.82300
C112        C  0.95281723  0.13022428  0.27489002     0.97100
O113        O  0.98013692  0.13220445  0.25005946    -0.71400
O114        O  0.95603711  0.19697598  0.21783965    -0.75000
Al115      Al  0.00566940  0.17906234  0.23335103     1.49000
C116        C  0.94810297  0.23257236  0.21253217     0.92300
O117        O  0.95030245  0.25225539  0.31174535    -0.81200
O118        O  0.04837707  0.19994131  0.34008999    -0.74800
Al119      Al  0.99702415  0.25508970  0.28037131     1.90100
O120        O  0.97045730  0.20744896  0.35253728    -0.73800
O121        O  0.03866773  0.13491383  0.30181324    -0.73700
O122        O  0.95659875  0.14798991  0.30684330    -0.79300
O123        O  0.05633150  0.15977353  0.24554456    -0.77600
O124        O  0.00236182  0.20353524  0.27853079    -1.13700
O125        O  0.03064988  0.21967698  0.20532365    -0.72900
C126        C  0.04671823  0.25129511  0.21440314     0.97800
C127        C  0.94673763  0.23412067  0.34361818     0.94200
Al128      Al  0.00338300  0.17478053  0.32186025     1.55600
O129        O  0.96293079  0.25853127  0.23449718    -0.77500
C130        C  0.06351953  0.13798309  0.27437669     0.98400
C131        C  0.05368870  0.23615443  0.34374515     0.93300
O132        O  0.03164424  0.26047454  0.32583247    -0.82800
O133        O  0.95842885  0.74561239  0.24204045    -0.82300
C134        C  0.05544694  0.87331517  0.28263625     0.97100
O135        O  0.03086512  0.87280474  0.25530323    -0.71400
O136        O  0.05363759  0.80703921  0.22250006    -0.75000
Al137      Al  0.00427434  0.82793433  0.23525881     1.49000
C138        C  0.05883181  0.77105210  0.21614745     0.92300
O139        O  0.04525636  0.74388030  0.31333028    -0.81200
O140        O  0.95435597  0.80399952  0.34024447    -0.74800
Al141      Al  0.00183047  0.74891693  0.27818548     1.90100
O142        O  0.03201228  0.79213606  0.35306640    -0.73800
O143        O  0.96794270  0.86923697  0.30437734    -0.73700
O144        O  0.04934172  0.85298192  0.31255834    -0.79300
O145        O  0.95411077  0.84919031  0.24516046    -0.77600
O146        O  0.00229706  0.80088255  0.27934318    -1.13700
O147        O  0.97971170  0.79108235  0.20283329    -0.72900
C148        C  0.95951544  0.76111884  0.20857505     0.97800
C149        C  0.05167625  0.76229294  0.34449600     0.94200
Al150      Al  0.00101430  0.82742138  0.32396434     1.55600
O151        O  0.03945469  0.74557922  0.23530094    -0.77500
C152        C  0.94507921  0.86830819  0.27528273     0.98400
C153        C  0.94419526  0.76876124  0.33982764     0.93300
O154        O  0.96348165  0.74393345  0.31992262    -0.82800
O155        O  0.75503447  0.76420244  0.05440018    -0.82300
C156        C  0.88109859  0.73183955  0.95333470     0.97100
O157        O  0.88164409  0.75844377  0.97874296    -0.71400
O158        O  0.81486771  0.79213277  0.96045462    -0.75000
Al159      Al  0.83730011  0.77662473  0.00811159     1.49000
C160        C  0.77855752  0.79859151  0.95703803     0.92300
O161        O  0.75604143  0.69951796  0.96327052    -0.81200
O162        O  0.81687085  0.66994796  0.05423537    -0.74800
Al163      Al  0.75928789  0.73154053  0.00882256     1.90100
O164        O  0.80355665  0.65848584  0.97674683    -0.73800
O165        O  0.88167545  0.70668244  0.04054616    -0.73700
O166        O  0.86353836  0.70048877  0.96030977    -0.79300
O167        O  0.86030250  0.76491342  0.05672883    -0.77600
O168        O  0.81150357  0.73179936  0.00835336    -1.13700
O169        O  0.79975080  0.80610570  0.03599118    -0.72900
C170        C  0.76990946  0.79792078  0.05585244     0.97800
C171        C  0.77404884  0.66791066  0.95677166     0.94200
Al172      Al  0.83925902  0.68748137  0.00798206     1.55600
O173        O  0.75369707  0.77733621  0.97488054    -0.77500
C174        C  0.88030458  0.73494306  0.06435202     0.98400
C175        C  0.78108899  0.66753517  0.06270690     0.93300
O176        O  0.75555084  0.68676401  0.04365551    -0.82800
O177        O  0.22585838  0.96061456  0.75975450    -0.82300
C178        C  0.25859510  0.05611120  0.89021083     0.97100
O179        O  0.23182015  0.03100514  0.88848580    -0.71400
O180        O  0.20171321  0.05427633  0.82151610    -0.75000
Al181      Al  0.21454239  0.00500659  0.84248715     1.49000
C182        C  0.19773613  0.06022357  0.78530981     0.92300
O183        O  0.29639852  0.04842793  0.76333453    -0.81200
O184        O  0.32268888  0.95737498  0.82295426    -0.74800
Al185      Al  0.26170879  0.00434401  0.76570478     1.90100
O186        O  0.33416074  0.03515368  0.81292547    -0.73800
O187        O  0.28250114  0.96898198  0.88628735    -0.73700
O188        O  0.28998413  0.05042561  0.87180506    -0.79300
O189        O  0.22411134  0.95506311  0.86339183    -0.77600
O190        O  0.26023085  0.00398981  0.81760014    -1.13700
O191        O  0.18482436  0.98043683  0.80422096    -0.72900
C192        C  0.19155887  0.96107519  0.77407539     0.97800
C193        C  0.32686348  0.05516961  0.78302177     0.94200
Al194      Al  0.30376525  0.00307475  0.84623474     1.55600
O195        O  0.21829805  0.04120040  0.76068272    -0.77500
C196        C  0.25376576  0.94573759  0.88317942     0.98400
C197        C  0.32486671  0.94826170  0.78752342     0.93300
O198        O  0.30498630  0.96701187  0.76223544    -0.82800
O199        O  0.04419349  0.74151700  0.77102453    -0.82300
C200        C  0.94813482  0.87183799  0.73625080     0.97100
O201        O  0.97366729  0.87060991  0.76269038    -0.71400
O202        O  0.95326846  0.80582985  0.79740100    -0.75000
Al203      Al  0.00162119  0.82596857  0.78117661     1.49000
C204        C  0.94690479  0.77007609  0.80336412     0.92300
O205        O  0.95266078  0.74476746  0.70616507    -0.81200
O206        O  0.04516029  0.80162873  0.67505418    -0.74800
Al207      Al  0.99876140  0.74711727  0.73802542     1.90100
O208        O  0.96717577  0.79111172  0.66468520    -0.73800
O209        O  0.03421920  0.86729051  0.70988835    -0.73700
O210        O  0.95302965  0.85220118  0.70575829    -0.79300
O211        O  0.05090349  0.84749545  0.76846368    -0.77600
O212        O  0.00030659  0.79917297  0.73715789    -1.13700
O213        O  0.02878008  0.78869649  0.81114844    -0.72900
C214        C  0.04759102  0.75812484  0.80370616     0.97800
C215        C  0.94592769  0.76286269  0.67477736     0.94200
Al216      Al  0.99996747  0.82582760  0.69246916     1.55600
O217        O  0.96439203  0.74427062  0.78311390    -0.77500
C218        C  0.05777566  0.86743486  0.73834025     0.98400
C219        C  0.05308323  0.76583763  0.67363299     0.93300
O220        O  0.03376513  0.74116848  0.69362734    -0.82800
O221        O  0.75415818  0.23335252  0.96350310    -0.82300
C222        C  0.87997586  0.27098223  0.06187071     0.97100
O223        O  0.88191900  0.24614319  0.03488132    -0.71400
O224        O  0.81796482  0.20894525  0.05562871    -0.75000
Al225      Al  0.83806431  0.22551324  0.00729143     1.49000
C226        C  0.78211340  0.20113298  0.06072186     0.92300
O227        O  0.75374729  0.29723749  0.05550884    -0.81200
O228        O  0.81032521  0.33058485  0.96231645    -0.74800
Al229      Al  0.75746432  0.26594906  0.00920328     1.90100
O230        O  0.79765777  0.34092030  0.03902900    -0.73800
O231        O  0.87764133  0.29752113  0.97469996    -0.73700
O232        O  0.86015545  0.30155390  0.05632421    -0.79300
O233        O  0.85850697  0.23892110  0.95810745    -0.77600
O234        O  0.80950483  0.26858226  0.00801123    -1.13700
O235        O  0.80208470  0.19419695  0.98028342    -0.72900
C236        C  0.77231421  0.20128237  0.96006949     0.97800
C237        C  0.76963079  0.33010940  0.06027671     0.94200
Al238      Al  0.83459418  0.31410417  0.00816497     1.48400
O239        O  0.75580525  0.22028167  0.04272599    -0.77500
C240        C  0.87552145  0.27041942  0.94968819     0.98400
C241        C  0.77409740  0.33159043  0.95533088     0.93300
O242        O  0.75015660  0.31080057  0.97488732    -0.82800
O243        O  0.76683950  0.04066802  0.75120701    -0.82300
C244        C  0.74141765  0.94758166  0.88527687     0.97100
O245        O  0.76981021  0.97054489  0.88026821    -0.71400
O246        O  0.79523395  0.94680854  0.81262474    -0.75000
Al247      Al  0.78524402  0.99645489  0.83318360     1.49000
C248        C  0.80052564  0.94265168  0.77653816     0.92300
O249        O  0.70222049  0.95005726  0.76241563    -0.81200
O250        O  0.67840078  0.04755483  0.81673482    -0.74800
Al251      Al  0.73441689  0.99535831  0.75968002     1.90100
O252        O  0.66384092  0.96868590  0.81041646    -0.73800
O253        O  0.72005454  0.03744215  0.87924559    -0.73700
O254        O  0.70912986  0.95513137  0.86932918    -0.79300
O255        O  0.77858636  0.04603896  0.85452761    -0.77600
O256        O  0.73843742  0.99817314  0.81131106    -1.13700
O257        O  0.81287560  0.02177642  0.79160366    -0.72900
C258        C  0.80183710  0.04240950  0.76319697     0.97800
C259        C  0.67123470  0.94589170  0.78233058     0.94200
Al260      Al  0.69623147  0.00189733  0.84170903     1.55600
O261        O  0.77936663  0.96103575  0.75229542    -0.77500
C262        C  0.75063696  0.05825835  0.87517326     0.98400
C263        C  0.67280493  0.05173341  0.78073070     0.93300
O264        O  0.68959668  0.02948956  0.75635136    -0.82800
O265        O  0.45902663  0.26848909  0.24690304    -0.82300
C266        C  0.55016160  0.23819213  0.38169941     0.97100
O267        O  0.52398991  0.26423161  0.37932968    -0.71400
O268        O  0.54650763  0.29755280  0.31437844    -0.75000
Al269      Al  0.49737820  0.28116435  0.33282203     1.49000
C270        C  0.55311470  0.30364950  0.27870540     0.92300
O271        O  0.55108144  0.20387057  0.25564428    -0.81200
O272        O  0.45608064  0.17325499  0.30965106    -0.74800
Al273      Al  0.50450856  0.23572744  0.25546892     1.90100
O274        O  0.53537690  0.16349099  0.30252374    -0.73800
O275        O  0.46383366  0.21101071  0.37497165    -0.73700
O276        O  0.54617531  0.20707654  0.36279751    -0.79300
O277        O  0.44711790  0.26857746  0.35236523    -0.77600
O278        O  0.50060248  0.23631470  0.30732166    -1.13700
O279        O  0.47155474  0.31020769  0.29329753    -0.72900
C280        C  0.45506945  0.30206051  0.26169871     0.97800
C281        C  0.55737853  0.17270490  0.27440361     0.94200
Al282      Al  0.50036782  0.19232168  0.33521444     1.55600
O283        O  0.53842467  0.28158921  0.25275415    -0.77500
C284        C  0.43951613  0.23907545  0.37296926     0.98400
C285        C  0.44929986  0.17109222  0.27364084     0.93300
O286        O  0.46985972  0.19064103  0.24943751    -0.82800
O287        O  0.25480161  0.45981850  0.27552804    -0.82300
C288        C  0.37604692  0.56125128  0.22884123     0.97100
O289        O  0.37917129  0.53861483  0.25789336    -0.71400
O290        O  0.31623191  0.55234297  0.29810793    -0.75000
Al291      Al  0.33882434  0.50602499  0.28031133     1.49000
C292        C  0.28063819  0.55641725  0.30695720     0.92300
O293        O  0.25309144  0.55085847  0.21002129    -0.81200
O294        O  0.30862541  0.45496530  0.17882974    -0.74800
Al295      Al  0.25704090  0.50490133  0.24201740     1.90100
O296        O  0.29436107  0.53236114  0.16448499    -0.73800
O297        O  0.37719806  0.47011193  0.20720960    -0.73700
O298        O  0.35789301  0.55051910  0.19905163    -0.79300
O299        O  0.36279748  0.45800136  0.26794364    -0.77600
O300        O  0.30924944  0.50427197  0.23806519    -1.13700
O301        O  0.30513562  0.47604276  0.31179335    -0.72900
C302        C  0.27450127  0.45638387  0.30658655     0.97800
C303        C  0.26847120  0.55571027  0.17673796     0.94200
Al304      Al  0.33275769  0.50213854  0.19133888     1.55600
O305        O  0.25465260  0.53850091  0.28764756    -0.77500
C306        C  0.37803479  0.44740640  0.23633817     0.98400
C307        C  0.27231506  0.44870204  0.17818678     0.93300
O308        O  0.24901578  0.47001533  0.19794344    -0.82800
O309        O  0.26624175  0.25444049  0.46457522    -0.82300
C310        C  0.24573397  0.38409004  0.56434624     0.97100
O311        O  0.27349466  0.37909996  0.54083604    -0.71400
O312        O  0.29629999  0.30938587  0.56152124    -0.75000
Al313      Al  0.28615772  0.33278204  0.51326016     1.49000
C314        C  0.30121745  0.27300245  0.56349224     0.92300
O315        O  0.20159056  0.25943819  0.55627518    -0.81200
O316        O  0.17439704  0.32067068  0.46661443    -0.74800
Al317      Al  0.23385742  0.26013126  0.51076067     1.90100
O318        O  0.16641114  0.31256530  0.54637331    -0.73800
O319        O  0.22022860  0.38042284  0.47340755    -0.73700
O320        O  0.21258937  0.37052952  0.55665928    -0.79300
O321        O  0.27922150  0.35626151  0.46527111    -0.77600
O322        O  0.23852936  0.31201894  0.51145465    -1.13700
O323        O  0.31276076  0.29249193  0.48611769    -0.72900
C324        C  0.30154990  0.26576331  0.46383676     0.97800
C325        C  0.17294430  0.28129260  0.56501824     0.94200
Al326      Al  0.19687881  0.34371895  0.51083816     1.55600
O327        O  0.27923575  0.25010753  0.54434816    -0.77500
C328        C  0.25120679  0.37651620  0.45283311     0.98400
C329        C  0.16932265  0.28528493  0.45880588     0.93300
O330        O  0.18859903  0.25928708  0.47687190    -0.82800
O331        O  0.26809716  0.75531438  0.55071570    -0.82300
C332        C  0.24293398  0.62411525  0.45757609     0.97100
O333        O  0.27079442  0.62652835  0.48154099    -0.71400
O334        O  0.29653018  0.69393244  0.45728720    -0.75000
Al335      Al  0.28689883  0.67338288  0.50699407     1.49000
C336        C  0.30127641  0.73004879  0.45271316     0.92300
O337        O  0.20266505  0.74386995  0.46155469    -0.81200
O338        O  0.18152928  0.68893500  0.55981128    -0.74800
Al339      Al  0.23540109  0.74678317  0.50621911     1.90100
O340        O  0.16447504  0.69659449  0.48196527    -0.73800
O341        O  0.22301612  0.62655970  0.54881274    -0.73700
O342        O  0.21020317  0.63843202  0.46653919    -0.79300
O343        O  0.28090259  0.65233093  0.55672758    -0.77600
O344        O  0.23999904  0.69524569  0.50929068    -1.13700
O345        O  0.31437524  0.71487420  0.53167868    -0.72900
C346        C  0.30310277  0.74324382  0.55218590     0.97800
C347        C  0.17131300  0.72451492  0.45866935     0.94200
Al348      Al  0.19809954  0.66470246  0.51390028     1.55600
O349        O  0.28003444  0.75434562  0.47113351    -0.77500
C350        C  0.25348496  0.63151488  0.56956880     0.98400
C351        C  0.17473032  0.72479250  0.56352708     0.93300
O352        O  0.19088235  0.74953412  0.54108440    -0.82800
O353        O  0.25923670  0.54889872  0.74826663    -0.82300
C354        C  0.38489332  0.44617455  0.78201161     0.97100
O355        O  0.38559239  0.47205852  0.75580509    -0.71400
O356        O  0.32017075  0.45643713  0.71907536    -0.75000
Al357      Al  0.34258729  0.50297326  0.73749884     1.49000
C358        C  0.28391267  0.45216761  0.71314144     0.92300
O359        O  0.25903718  0.45540377  0.81070137    -0.81200
O360        O  0.31802074  0.54633611  0.84436873    -0.74800
Al361      Al  0.26280873  0.50233501  0.78010934     1.90100
O362        O  0.30416840  0.46903858  0.85362388    -0.73800
O363        O  0.38442012  0.53195564  0.81001497    -0.73700
O364        O  0.36537413  0.45194654  0.81264670    -0.79300
O365        O  0.36575769  0.55053897  0.75180938    -0.77600
O366        O  0.31500171  0.50188399  0.78131781    -1.13700
O367        O  0.30702658  0.53301376  0.70854183    -0.72900
C368        C  0.27709823  0.55301273  0.71611457     0.97800
C369        C  0.27631581  0.44801112  0.84243512     0.94200
Al370      Al  0.34093805  0.49994494  0.82643437     1.55600
O371        O  0.25884033  0.47007322  0.73398054    -0.77500
C372        C  0.38399839  0.55695437  0.78290710     0.98400
C373        C  0.28208758  0.55468272  0.84586813     0.93300
O374        O  0.25752746  0.53578127  0.82546445    -0.82800
O375        O  0.54902039  0.73527810  0.24693095    -0.82300
C376        C  0.44628913  0.76466028  0.37461021     0.97100
O377        O  0.46741820  0.73518944  0.36923963    -0.71400
O378        O  0.44793101  0.71076224  0.29876340    -0.75000
Al379      Al  0.49629381  0.72010605  0.32462183     1.49000
C380        C  0.44662239  0.70797610  0.26196028     0.92300
O381        O  0.46032640  0.80599784  0.24864102    -0.81200
O382        O  0.55011396  0.82801695  0.31184804    -0.74800
Al383      Al  0.50454435  0.77102160  0.25094887     1.90100
O384        O  0.47152687  0.84082549  0.30104853    -0.73800
O385        O  0.53697900  0.78469967  0.37241056    -0.73700
O386        O  0.45522579  0.79645727  0.35888849    -0.79300
O387        O  0.54454694  0.72522217  0.35034239    -0.77600
O388        O  0.50152705  0.76696439  0.30280853    -1.13700
O389        O  0.52346279  0.69226388  0.28667598    -0.72900
C390        C  0.54699578  0.70059090  0.25985346     0.97800
C391        C  0.45212323  0.83473307  0.27043802     0.94200
Al392      Al  0.50330985  0.80889256  0.33356764     1.55600
O393        O  0.46869740  0.72876229  0.24062178    -0.77500
C394        C  0.55698528  0.75343362  0.37023314     0.98400
C395        C  0.55957003  0.83195053  0.27663008     0.93300
O396        O  0.54132388  0.81361304  0.25040988    -0.82800
O397        O  0.75906418  0.54010695  0.27354519    -0.82300
C398        C  0.62748072  0.44951930  0.23652540     0.97100
O399        O  0.62733459  0.47507048  0.26318106    -0.71400
O400        O  0.69047819  0.45258447  0.30042865    -0.75000
Al401      Al  0.67235067  0.50172499  0.28350553     1.49000
C402        C  0.72615387  0.44515999  0.30678946     0.92300
O403        O  0.75085449  0.44887284  0.20920928    -0.81200
O404        O  0.69986644  0.54816136  0.18058869    -0.74800
Al405      Al  0.75167046  0.49515707  0.24087223     1.90100
O406        O  0.70982497  0.47151643  0.16588106    -0.73800
O407        O  0.63234943  0.53537372  0.21281538    -0.73700
O408        O  0.64738386  0.45521601  0.20606971    -0.79300
O409        O  0.65321694  0.55210603  0.27067018    -0.77600
O410        O  0.69990924  0.49980739  0.23991664    -1.13700
O411        O  0.71054351  0.52716162  0.31364740    -0.72900
C412        C  0.74235948  0.54403278  0.30626977     0.97800
C413        C  0.73477252  0.44651993  0.17619648     0.94200
Al414      Al  0.67431275  0.50231535  0.19487585     1.55600
O415        O  0.75273568  0.46119848  0.28625195    -0.77500
C416        C  0.63408750  0.55977742  0.24029954     0.98400
C417        C  0.73643387  0.55259530  0.17818631     0.93300
O418        O  0.75975888  0.52975355  0.19620991    -0.82800
O419        O  0.73088426  0.74654084  0.46270984    -0.82300
C420        C  0.76150894  0.61728067  0.56101530     0.97100
O421        O  0.73468829  0.61888525  0.53581085    -0.71400
O422        O  0.70127400  0.68547748  0.55455271    -0.75000
Al423      Al  0.71755348  0.66372995  0.50688709     1.49000
C424        C  0.69718087  0.72159301  0.56079776     0.92300
O425        O  0.79627184  0.74315485  0.55367934    -0.81200
O426        O  0.82542861  0.68379365  0.46208910    -0.74800
Al427      Al  0.76375017  0.74097673  0.50806433     1.90100
O428        O  0.83629156  0.69514811  0.53978135    -0.73800
O429        O  0.78779263  0.61943609  0.47487623    -0.73700
O430        O  0.79286539  0.63566567  0.55530347    -0.79300
O431        O  0.72999859  0.64160268  0.45802895    -0.77600
O432        O  0.76283123  0.68899102  0.50769127    -1.13700
O433        O  0.68879838  0.70128021  0.47895859    -0.72900
C434        C  0.69785982  0.73045738  0.45881388     0.97800
C435        C  0.82736313  0.72418906  0.56039016     0.94200
Al436      Al  0.80697552  0.66082580  0.50801804     1.55600
O437        O  0.71848959  0.74619618  0.54267931    -0.77500
C438        C  0.76025120  0.62191376  0.45034486     0.98400
C439        C  0.82736284  0.71931855  0.45310839     0.93300
O440        O  0.80831649  0.74466560  0.47264332    -0.82800
O441        O  0.74834707  0.45597547  0.74605301    -0.82300
C442        C  0.61816947  0.55226860  0.77942351     0.97100
O443        O  0.61900201  0.52687148  0.75272645    -0.71400
O444        O  0.68489388  0.54765761  0.71787023    -0.75000
Al445      Al  0.66423182  0.49917305  0.73389145     1.49000
C446        C  0.72114089  0.55175438  0.71121107     0.92300
O447        O  0.74356330  0.54762896  0.80989170    -0.81200
O448        O  0.68749012  0.45255756  0.83975651    -0.74800
Al449      Al  0.74238697  0.50165253  0.77835590     1.90100
O450        O  0.69830967  0.53075146  0.85203794    -0.73800
O451        O  0.62149733  0.46493872  0.80390820    -0.73700
O452        O  0.63679243  0.54607481  0.81039563    -0.79300
O453        O  0.64329886  0.44983868  0.74568350    -0.77600
O454        O  0.69030940  0.49983003  0.77842059    -1.13700
O455        O  0.70262343  0.47247437  0.70444593    -0.72900
C456        C  0.73335024  0.45390148  0.71246153     0.97800
C457        C  0.72657979  0.55248089  0.84233679     0.94200
Al458      Al  0.66306945  0.49871994  0.82295157     1.55600
O459        O  0.74644993  0.53503504  0.73262851    -0.77500
C460        C  0.62397670  0.44111109  0.77574772     0.98400
C461        C  0.72386412  0.44688126  0.84228380     0.93300
O462        O  0.74793887  0.46773024  0.82311691    -0.82800
O463        O  0.45267250  0.73651952  0.76560004    -0.82300
C464        C  0.55242155  0.76801383  0.63710508     0.97100
O465        O  0.52581740  0.74258322  0.63725666    -0.71400
O466        O  0.54675217  0.71107345  0.70363362    -0.75000
Al467      Al  0.49803366  0.72515091  0.68259051     1.49000
C468        C  0.54994575  0.70275913  0.73928066     0.92300
O469        O  0.54362873  0.80182382  0.76363440    -0.81200
O470        O  0.45316222  0.83274766  0.70405197    -0.74800
Al471      Al  0.49804207  0.76970905  0.76046338     1.90100
O472        O  0.53157481  0.84185351  0.71516537    -0.73800
O473        O  0.46434053  0.79476353  0.63954775    -0.73700
O474        O  0.54675906  0.79950913  0.65498968    -0.79300
O475        O  0.44897050  0.73633607  0.66098490    -0.77600
O476        O  0.49802838  0.76976625  0.70835398    -1.13700
O477        O  0.47163940  0.69549401  0.72072699    -0.72900
C478        C  0.45322724  0.70241281  0.75172035     0.97800
C479        C  0.55120259  0.83258610  0.74481231     0.94200
Al480      Al  0.49888635  0.81375811  0.68058804     1.55600
O481        O  0.53264061  0.72368256  0.76490066    -0.77500
C482        C  0.44041878  0.76642320  0.64158841     0.98400
C483        C  0.44369611  0.83445820  0.73947156     0.93300
O484        O  0.46240425  0.81440650  0.76469253    -0.82800
O485        O  0.54741257  0.26199011  0.76367356    -0.82300
C486        C  0.44853841  0.23222602  0.63446214     0.97100
O487        O  0.47357121  0.25915216  0.63670291    -0.71400
O488        O  0.45396078  0.29129596  0.70356985    -0.75000
Al489      Al  0.50214393  0.27587768  0.68162103     1.49000
C490        C  0.45013966  0.29662815  0.73982452     0.92300
O491        O  0.45561733  0.19772653  0.76137892    -0.81200
O492        O  0.54656297  0.16757471  0.70126587    -0.74800
Al493      Al  0.50158248  0.22946585  0.75865851     1.90100
O494        O  0.46795823  0.15802334  0.71286587    -0.73800
O495        O  0.53476528  0.20618398  0.63737695    -0.73700
O496        O  0.45369548  0.20118558  0.65325944    -0.79300
O497        O  0.55106688  0.26405617  0.65935208    -0.77600
O498        O  0.50155095  0.23058857  0.70670187    -1.13700
O499        O  0.52967279  0.30456134  0.71956126    -0.72900
C500        C  0.54901605  0.29596919  0.74940114     0.97800
C501        C  0.44788064  0.16723361  0.74233181     0.94200
Al502      Al  0.50081197  0.18682185  0.67851341     1.55600
O503        O  0.46759782  0.27481850  0.76429694    -0.77500
C504        C  0.55878092  0.23426989  0.63930839     0.98400
C505        C  0.55536203  0.16545767  0.73676706     0.93300
O506        O  0.53655497  0.18490184  0.76220544    -0.82800
O507        O  0.73335351  0.24978064  0.55415417    -0.82300
C508        C  0.76116599  0.37914938  0.45780531     0.97100
O509        O  0.73415117  0.37867289  0.48322585    -0.71400
O510        O  0.70053809  0.31296009  0.46491265    -0.75000
Al511      Al  0.71718757  0.33378095  0.51254562     1.49000
C512        C  0.69573131  0.27695472  0.45928670     0.92300
O513        O  0.79595209  0.25768822  0.46162149    -0.81200
O514        O  0.82335082  0.31393418  0.55784941    -0.74800
Al515      Al  0.76471283  0.25726367  0.50825767     1.90100
O516        O  0.83734795  0.30235306  0.48081694    -0.73800
O517        O  0.78634578  0.37894381  0.54419587    -0.73700
O518        O  0.79318871  0.36207937  0.46433340    -0.79300
O519        O  0.72940039  0.35535168  0.56160135    -0.77600
O520        O  0.76272084  0.30901149  0.51076331    -1.13700
O521        O  0.68981844  0.29484618  0.54025555    -0.72900
C522        C  0.69943821  0.26412775  0.55787333     0.97800
C523        C  0.82873838  0.27445758  0.45854246     0.94200
Al524      Al  0.80655006  0.33722888  0.51162164     1.55600
O525        O  0.71829009  0.25202121  0.47524406    -0.77500
C526        C  0.75892962  0.37589937  0.56897391     0.98400
C527        C  0.82809116  0.27790901  0.56347994     0.93300
O528        O  0.81056927  0.25315438  0.54204611    -0.82800
C529        C  0.59663388  0.23272835  0.61872982    -0.00600
C530        C  0.63072044  0.24118466  0.63999552    -0.12500
C531        C  0.66665114  0.24710229  0.62105711     0.01600
C532        C  0.66845290  0.24465501  0.58022326    -0.00700
C533        C  0.63509147  0.23306616  0.55931156    -0.12500
C534        C  0.59922719  0.22702798  0.57822618     0.01500
H535        H  0.62875678  0.24493241  0.67129343     0.14500
H536        H  0.63635630  0.23182033  0.52770995     0.14500
C537        C  0.56489698  0.21924331  0.55503934     0.36100
C538        C  0.70030173  0.25866257  0.64362853     0.36000
N539        N  0.53738959  0.21323513  0.53636283    -0.44200
N540        N  0.72725052  0.26773301  0.66186302    -0.44200
C541        C  0.60552334  0.40213919  0.77756973    -0.00600
C542        C  0.62828337  0.36961075  0.76660696    -0.12500
C543        C  0.61129639  0.33270034  0.76191961     0.01600
C544        C  0.57077426  0.32810620  0.76776693    -0.00700
C545        C  0.54859901  0.35995649  0.78154807    -0.12500
C546        C  0.56564475  0.39678199  0.78672245     0.01500
H547        H  0.65920065  0.37343364  0.76027310     0.14500
H548        H  0.51724572  0.35665899  0.78568637     0.14500
C549        C  0.54093108  0.42915239  0.79791766     0.36100
C550        C  0.63546475  0.30067036  0.74882025     0.36000
N551        N  0.52106291  0.45506831  0.80688531    -0.44200
N552        N  0.65512938  0.27501800  0.73874142    -0.44200
C553        C  0.59779474  0.59015000  0.77221132    -0.00600
C554        C  0.58361971  0.59680616  0.73451252    -0.12500
C555        C  0.56888291  0.63300850  0.72325611     0.01600
C556        C  0.56845931  0.66475314  0.74989421    -0.00700
C557        C  0.58104575  0.65784942  0.78826434    -0.12500
C558        C  0.59544436  0.62098719  0.79964809     0.01500
H559        H  0.58423213  0.57360849  0.71320163     0.14500
H560        H  0.57924789  0.68106937  0.80947270     0.14500
C561        C  0.60612234  0.61571521  0.83993596     0.36100
C562        C  0.55237487  0.63493352  0.68455111     0.36000
N563        N  0.61384787  0.61192121  0.87253003    -0.44200
N564        N  0.53905488  0.63529537  0.65356388    -0.44200
C565        C  0.76104108  0.39570523  0.60710362    -0.00600
C566        C  0.75469833  0.37351919  0.64113916    -0.12500
C567        C  0.75039081  0.39160483  0.67759781     0.01600
C568        C  0.75179738  0.43251126  0.68002481    -0.00700
C569        C  0.76119059  0.45434214  0.64649872    -0.12500
C570        C  0.76602415  0.43630468  0.61021562     0.01500
H571        H  0.75166690  0.34212580  0.63893392     0.14500
H572        H  0.76197073  0.48593775  0.64820551     0.14500
C573        C  0.77221698  0.46041097  0.57620952     0.36100
C574        C  0.74199103  0.36802927  0.71151316     0.36000
N575        N  0.77703796  0.47979046  0.54895951    -0.44200
N576        N  0.73560530  0.34913481  0.73880001    -0.44200
C577        C  0.75468548  0.59632504  0.59841910    -0.00600
C578        C  0.77661982  0.60690390  0.63155350    -0.12500
C579        C  0.76652433  0.59297899  0.66885293     0.01600
C580        C  0.73324347  0.56917838  0.67356569    -0.00700
C581        C  0.71265668  0.55712952  0.64030663    -0.12500
C582        C  0.72351703  0.56963388  0.60303859     0.01500
H583        H  0.80083793  0.62697150  0.62860566     0.14500
H584        H  0.68847968  0.53695571  0.64331550     0.14500
C585        C  0.70221568  0.55414059  0.57020741     0.36100
C586        C  0.78993742  0.60449076  0.70181647     0.36000
N587        N  0.68526756  0.54160041  0.54390561    -0.44200
N588        N  0.80881925  0.61360967  0.72822106    -0.44200
C589        C  0.66387763  0.73492614  0.58597615    -0.00600
C590        C  0.65171243  0.77430484  0.58466242    -0.12500
C591        C  0.61588778  0.78631507  0.60142891     0.01600
C592        C  0.59100405  0.75851997  0.61909959    -0.00700
C593        C  0.60413838  0.71984972  0.62216393    -0.12500
C594        C  0.64016488  0.70802053  0.60677300     0.01500
H595        H  0.66948763  0.79559948  0.56934553     0.14500
H596        H  0.58622827  0.69851897  0.63719361     0.14500
C597        C  0.65145080  0.66785236  0.61306758     0.36100
C598        C  0.60466157  0.82684115  0.59862833     0.36000
N599        N  0.66002057  0.63561391  0.61846319    -0.44200
N600        N  0.59568551  0.85936744  0.59650133    -0.44200
C601        C  0.73677147  0.42255431  0.34235441    -0.00600
C602        C  0.77427258  0.42777976  0.35861209    -0.12500
C603        C  0.78289348  0.41466281  0.39642523     0.01600
C604        C  0.75359236  0.39625187  0.41894083    -0.00700
C605        C  0.71673490  0.38977951  0.40230146    -0.12500
C606        C  0.70834870  0.40191988  0.36435202     0.01500
H607        H  0.79648298  0.44376134  0.34253986     0.14500
H608        H  0.69442638  0.37430775  0.41874416     0.14500
C609        C  0.67036126  0.39205345  0.34899920     0.36100
C610        C  0.82131241  0.42223706  0.41215043     0.36000
N611        N  0.63982243  0.38349675  0.33734495    -0.44200
N612        N  0.85206268  0.42833371  0.42487644    -0.44200
C613        C  0.75938626  0.56667346  0.33826313    -0.00600
C614        C  0.77206300  0.54561341  0.37110865    -0.12500
C615        C  0.77438053  0.56336614  0.40777567     0.01600
C616        C  0.76342999  0.60279634  0.41190434    -0.00700
C617        C  0.75344959  0.62453460  0.37850847    -0.12500
C618        C  0.75152512  0.60678785  0.34179056     0.01500
H619        H  0.77709786  0.51444649  0.36868435     0.14500
H620        H  0.74582518  0.65515012  0.38137121     0.14500
C621        C  0.73865022  0.62944027  0.30867404     0.36100
C622        C  0.78419896  0.53960422  0.44114528     0.36000
N623        N  0.72853654  0.64751640  0.28199441    -0.44200
N624        N  0.79191404  0.52049648  0.46790187    -0.44200
C625        C  0.59579609  0.74993067  0.39028100    -0.00600
C626        C  0.60732564  0.77844502  0.41751463    -0.12500
C627        C  0.64298105  0.77510822  0.43786322     0.01600
C628        C  0.66835505  0.74346731  0.43031292    -0.00700
C629        C  0.65814562  0.71647083  0.40162808    -0.12500
C630        C  0.62245281  0.71903779  0.38191993     0.01500
H631        H  0.58781843  0.80258688  0.42412581     0.14500
H632        H  0.67712923  0.69148999  0.39652610     0.14500
C633        C  0.61391006  0.68809270  0.35474910     0.36100
C634        C  0.65167030  0.80288912  0.46816923     0.36000
N635        N  0.60743837  0.66268581  0.33358403    -0.44200
N636        N  0.65857202  0.82520769  0.49245082    -0.44200
C637        C  0.56997731  0.66714985  0.24469232    -0.00600
C638        C  0.55051162  0.63085263  0.24411139    -0.12500
C639        C  0.57087269  0.59585097  0.24028858     0.01600
C640        C  0.61183827  0.59640364  0.23799707    -0.00700
C641        C  0.63168298  0.63237640  0.23663683    -0.12500
C642        C  0.61096044  0.66785927  0.23963511     0.01500
H643        H  0.51923719  0.62950596  0.24949837     0.14500
H644        H  0.66339653  0.63262538  0.23463427     0.14500
C645        C  0.63251025  0.70395605  0.24163829     0.36100
C646        C  0.54938649  0.55956241  0.24224520     0.36000
N647        N  0.64975244  0.73293145  0.24348265    -0.44200
N648        N  0.53237498  0.53041816  0.24390601    -0.44200
C649        C  0.43273863  0.33381185  0.75273274    -0.00600
C650        C  0.44877362  0.36786456  0.73655266    -0.12500
C651        C  0.43563883  0.40472539  0.74774223     0.01600
C652        C  0.40485988  0.40823650  0.77517151    -0.00700
C653        C  0.38953583  0.37399997  0.79236360    -0.12500
C654        C  0.40358272  0.33689114  0.78162038     0.01500
H655        H  0.47231213  0.36567026  0.71528500     0.14500
H656        H  0.36543545  0.37606176  0.81292337     0.14500
C657        C  0.38638651  0.30246529  0.79884004     0.36100
C658        C  0.45458005  0.43829510  0.73053626     0.36000
N659        N  0.37263941  0.27471240  0.81240913    -0.44200
N660        N  0.46986208  0.46507230  0.71665062    -0.44200
C661        C  0.40422584  0.59437868  0.78704441    -0.00600
C662        C  0.38155629  0.62840314  0.79194056    -0.12500
C663        C  0.39795773  0.66544801  0.78555261     0.01600
C664        C  0.43692475  0.66807200  0.77220563    -0.00700
C665        C  0.46044230  0.63420284  0.77206466    -0.12500
C666        C  0.44450517  0.59753558  0.77961287     0.01500
H667        H  0.35057184  0.62587566  0.79879883     0.14500
H668        H  0.49098357  0.63608901  0.76338933     0.14500
C669        C  0.46934098  0.56349947  0.77644266     0.36100
C670        C  0.37381370  0.69965534  0.79073478     0.36000
N671        N  0.48952261  0.53641557  0.77403308    -0.44200
N672        N  0.35430293  0.72699956  0.79508517    -0.44200
C673        C  0.25750902  0.61413519  0.60958508    -0.00600
C674        C  0.22636174  0.59291112  0.62652711    -0.12500
C675        C  0.23002407  0.57581820  0.66384061     0.01600
C676        C  0.26490052  0.58062700  0.68526262    -0.00700
C677        C  0.29466739  0.60393759  0.66963759    -0.12500
C678        C  0.29187682  0.61992134  0.63231407     0.01500
H679        H  0.19957678  0.58858200  0.61019210     0.14500
H680        H  0.32192723  0.60700823  0.68563235     0.14500
C681        C  0.32641163  0.63965384  0.61780722     0.36100
C682        C  0.19884025  0.55139622  0.67843321     0.36000
N683        N  0.35443389  0.65487808  0.60632383    -0.44200
N684        N  0.17384362  0.53182801  0.69022427    -0.44200
C685        C  0.33753820  0.74255421  0.43311501    -0.00600
C686        C  0.37240580  0.72548013  0.44657971    -0.12500
C687        C  0.40838211  0.73422209  0.42951675     0.01600
C688        C  0.41006540  0.76053276  0.39791229    -0.00700
C689        C  0.37528332  0.77877026  0.38517377    -0.12500
C690        C  0.33903566  0.77015603  0.40279966     0.01500
H691        H  0.37153821  0.70492412  0.47067812     0.14500
H692        H  0.37606579  0.79804502  0.36012319     0.14500
C693        C  0.30373164  0.78786586  0.38785469     0.36100
C694        C  0.44301605  0.71533331  0.44484809     0.36000
N695        N  0.27534960  0.80189871  0.37579406    -0.44200
N696        N  0.47067717  0.70003599  0.45705261    -0.44200
C697        C  0.40203268  0.76777774  0.62141138    -0.00600
C698        C  0.39873328  0.78575221  0.58476592    -0.12500
C699        C  0.36419604  0.78194649  0.56293739     0.01600
C700        C  0.33222845  0.76067693  0.57817976    -0.00700
C701        C  0.33406310  0.74630758  0.61616555    -0.12500
C702        C  0.36856395  0.74941378  0.63770590     0.01500
H703        H  0.42376593  0.80073227  0.57223986     0.14500
H704        H  0.30961610  0.72967155  0.62780598     0.14500
C705        C  0.36905231  0.73178376  0.67581659     0.36100
C706        C  0.36251926  0.79883560  0.52440888     0.36000
N707        N  0.36917493  0.71708680  0.70613672    -0.44200
N708        N  0.36098536  0.81279583  0.49370620    -0.44200
C709        C  0.25378370  0.40189027  0.60269381    -0.00600
C710        C  0.28713555  0.38885312  0.62277911    -0.12500
C711        C  0.29580831  0.40234553  0.66013593     0.01600
C712        C  0.27125653  0.43035085  0.67806732    -0.00700
C713        C  0.23719666  0.44266147  0.65834974    -0.12500
C714        C  0.22833939  0.42869989  0.62094267     0.01500
H715        H  0.30642748  0.36750094  0.60942493     0.14500
H716        H  0.21838342  0.46462522  0.67134494     0.14500
C717        C  0.19420730  0.44371766  0.60112794     0.36100
C718        C  0.32997046  0.38654416  0.67936217     0.36000
N719        N  0.16689490  0.45577713  0.58516384    -0.44200
N720        N  0.35732187  0.37366878  0.69459527    -0.44200
C721        C  0.33827362  0.25904596  0.58071814    -0.00600
C722        C  0.37234683  0.27929789  0.56978050    -0.12500
C723        C  0.40897831  0.26888572  0.58426343     0.01600
C724        C  0.41206120  0.23841758  0.61183205    -0.00700
C725        C  0.37824494  0.21651639  0.62109864    -0.12500
C726        C  0.34154046  0.22622902  0.60517485     0.01500
H727        H  0.37045988  0.30330907  0.54918086     0.14500
H728        H  0.38014710  0.19263735  0.64180859     0.14500
C729        C  0.30766657  0.20319154  0.61536184     0.36100
C730        C  0.44282530  0.28963364  0.56958598     0.36000
N731        N  0.28051480  0.18458360  0.62333053    -0.44200
N732        N  0.46992325  0.30607672  0.55759582    -0.44200
C733        C  0.39096747  0.60162899  0.23103473    -0.00600
C734        C  0.42614117  0.61197354  0.21266919    -0.12500
C735        C  0.44152785  0.64966195  0.21737749     0.01600
C736        C  0.42404263  0.67561575  0.24453098    -0.00700
C737        C  0.38706894  0.66648863  0.25963142    -0.12500
C738        C  0.36925757  0.63097827  0.25042386     0.01500
H739        H  0.44131888  0.59086559  0.19452560     0.14500
H740        H  0.37180079  0.68746567  0.27787548     0.14500
C741        C  0.32757830  0.62772018  0.25645717     0.36100
C742        C  0.47484906  0.66093328  0.19392066     0.36000
N743        N  0.29379414  0.62714092  0.25952041    -0.44200
N744        N  0.50111215  0.67017886  0.17456710    -0.44200
C745        C  0.27013478  0.57920446  0.34260292    -0.00600
C746        C  0.23078888  0.58083289  0.35516981    -0.12500
C747        C  0.22068869  0.59556670  0.39215739     0.01600
C748        C  0.25046978  0.60775483  0.41804515    -0.00700
C749        C  0.28936637  0.60795619  0.40461637    -0.12500
C750        C  0.29937466  0.59472861  0.36746852     0.01500
H751        H  0.20783515  0.56967308  0.33649410     0.14500
H752        H  0.31246547  0.61906342  0.42317046     0.14500
C753        C  0.34030981  0.59709298  0.35660919     0.36100
C754        C  0.17971488  0.59716007  0.40275043     0.36000
N755        N  0.37314091  0.59906852  0.34818617    -0.44200
N756        N  0.14680159  0.59867002  0.41096068    -0.44200
C757        C  0.26355792  0.42969985  0.33861925    -0.00600
C758        C  0.29400055  0.40758715  0.35457977    -0.12500
C759        C  0.29052553  0.39005173  0.39102547     0.01600
C760        C  0.25543795  0.39459417  0.41327383    -0.00700
C761        C  0.22392395  0.41512611  0.39620164    -0.12500
C762        C  0.22778386  0.43264702  0.35912175     0.01500
H763        H  0.32179508  0.40569864  0.33914285     0.14500
H764        H  0.19654228  0.41818997  0.41206044     0.14500
C765        C  0.19571478  0.45539630  0.34371831     0.36100
C766        C  0.32458580  0.36878033  0.40454471     0.36000
N767        N  0.17010056  0.47361347  0.33109308    -0.44200
N768        N  0.35201541  0.35183967  0.41502123    -0.44200
C769        C  0.58654203  0.24528241  0.40456107    -0.00600
C770        C  0.62135766  0.22528610  0.39430257    -0.12500
C771        C  0.65753987  0.23479356  0.41144854     0.01600
C772        C  0.65930424  0.26481842  0.43929155    -0.00700
C773        C  0.62446992  0.28391198  0.45030497    -0.12500
C774        C  0.58845010  0.27445190  0.43354360     0.01500
H775        H  0.62065242  0.20317952  0.37174005     0.14500
H776        H  0.62532503  0.30632314  0.47259522     0.14500
C777        C  0.55401313  0.29507399  0.44709204     0.36100
C778        C  0.69265800  0.21516297  0.39836594     0.36000
N779        N  0.52646005  0.31163828  0.45795254    -0.44200
N780        N  0.72092098  0.19968457  0.38772382    -0.44200
C781        C  0.40213294  0.23831089  0.39523825    -0.00600
C782        C  0.36740460  0.25062707  0.37672513    -0.12500
C783        C  0.33233951  0.25546548  0.39786362     0.01600
C784        C  0.33185770  0.24842717  0.43829698    -0.00700
C785        C  0.36599655  0.23413326  0.45633524    -0.12500
C786        C  0.40087272  0.22881498  0.43521835     0.01500
H787        H  0.36805980  0.25788790  0.34593162     0.14500
H788        H  0.36609795  0.22965354  0.48767548     0.14500
C789        C  0.43580700  0.21738431  0.45602530     0.36100
C790        C  0.29825722  0.27095667  0.37830038     0.36000
N791        N  0.46389060  0.20840833  0.47265379    -0.44200
N792        N  0.27086057  0.28344704  0.36280646    -0.44200
C793        C  0.60596246  0.41237342  0.24298626    -0.00600
C794        C  0.58001780  0.41085624  0.27464721    -0.12500
C795        C  0.56382696  0.37575981  0.28721714     0.01600
C796        C  0.57289478  0.34048807  0.26753684    -0.00700
C797        C  0.59740954  0.34196258  0.23465260    -0.12500
C798        C  0.61394383  0.37745030  0.22218451     0.01500
H799        H  0.57303623  0.43727066  0.29066489     0.14500
H800        H  0.60350121  0.31538169  0.21859124     0.14500
C801        C  0.63867951  0.37679350  0.18799964     0.36100
C802        C  0.53776034  0.37769517  0.32046505     0.36000
N803        N  0.65797247  0.37593310  0.16020448    -0.44200
N804        N  0.51723206  0.38018748  0.34729231    -0.44200
C805        C  0.39512890  0.40742259  0.23408680    -0.00600
C806        C  0.43295616  0.40126131  0.21924513    -0.12500
C807        C  0.45129742  0.36458667  0.22314948     0.01600
C808        C  0.43216205  0.33373369  0.24302809    -0.00700
C809        C  0.39311169  0.33892013  0.25442788    -0.12500
C810        C  0.37422134  0.37494125  0.24903993     0.01500
H811        H  0.44873377  0.42536629  0.20604062     0.14500
H812        H  0.37784649  0.31531704  0.26910423     0.14500
C813        C  0.33288952  0.37734331  0.25778190     0.36100
C814        C  0.48976691  0.35933794  0.20647337     0.36000
N815        N  0.29950919  0.37836831  0.26377969    -0.44200
N816        N  0.52006376  0.35540568  0.19173555    -0.44200
C817        C  0.58390430  0.85840265  0.75628601    -0.00600
C818        C  0.60971872  0.87128715  0.72705579    -0.12500
C819        C  0.63906258  0.89865570  0.73496232     0.01600
C820        C  0.64267717  0.91439930  0.77289506    -0.00700
C821        C  0.61723175  0.90071344  0.80239316    -0.12500
C822        C  0.58821424  0.87281795  0.79446482     0.01500
H823        H  0.60654713  0.86024345  0.69760409     0.14500
H824        H  0.61966529  0.91218795  0.83172404     0.14500
C825        C  0.56180364  0.86122105  0.82535647     0.36100
C826        C  0.66368394  0.91113347  0.70298486     0.36000
N827        N  0.54053009  0.85198911  0.85005148    -0.44200
N828        N  0.68334546  0.92098321  0.67723495    -0.44200
C829        C  0.64488809  0.08207864  0.76745470    -0.00600
C830        C  0.64100060  0.11675020  0.78910418    -0.12500
C831        C  0.61262515  0.14483673  0.77942257     0.01600
C832        C  0.58707420  0.13806913  0.74792688    -0.00700
C833        C  0.59183167  0.10395614  0.72566275    -0.12500
C834        C  0.62020081  0.07606090  0.73511738     0.01500
H835        H  0.66023885  0.12193172  0.81366357     0.14500
H836        H  0.57244772  0.09842681  0.70129235     0.14500
C837        C  0.62152688  0.04048976  0.71257948     0.36100
C838        C  0.61138040  0.18083988  0.80120084     0.36000
N839        N  0.62256949  0.01189449  0.69470041    -0.44200
N840        N  0.61056088  0.20984118  0.81842616    -0.44200
C841        C  0.75600906  0.35775972  0.09018575    -0.00600
C842        C  0.75777859  0.34769048  0.12986070    -0.12500
C843        C  0.75210182  0.37619468  0.15885400     0.01600
C844        C  0.74449052  0.41530458  0.14796571    -0.00700
C845        C  0.74191141  0.42475702  0.10819691    -0.12500
C846        C  0.74749455  0.39657868  0.07951546     0.01500
H847        H  0.76472585  0.31791710  0.13814475     0.14500
H848        H  0.73549984  0.45450868  0.09935058     0.14500
C849        C  0.74414636  0.40826087  0.03912270     0.36100
C850        C  0.75254616  0.36434361  0.19925125     0.36000
N851        N  0.74136548  0.41768115  0.00682977    -0.44200
N852        N  0.75262749  0.35485983  0.23165447    -0.44200
C853        C  0.76049751  0.35959738  0.92518239    -0.00600
C854        C  0.78369859  0.39284047  0.91821597    -0.12500
C855        C  0.77282516  0.42105548  0.89088280     0.01600
C856        C  0.73800297  0.41637007  0.86943512    -0.00700
C857        C  0.71479438  0.38303782  0.87603661    -0.12500
C858        C  0.72579131  0.35464632  0.90349367     0.01500
H859        H  0.81019387  0.39743847  0.93497313     0.14500
H860        H  0.68799385  0.37909490  0.85957663     0.14500
C861        C  0.70166405  0.32034477  0.90784142     0.36100
C862        C  0.79689141  0.45552594  0.88715349     0.36000
N863        N  0.68240333  0.29276850  0.91117465    -0.44200
N864        N  0.81604060  0.48321661  0.88417415    -0.44200
C865        C  0.75413102  0.09743413  0.89407748    -0.00600
C866        C  0.72366288  0.11163714  0.91816570    -0.12500
C867        C  0.72699378  0.14775341  0.93745627     0.01600
C868        C  0.76095846  0.17052459  0.93236433    -0.00700
C869        C  0.79035662  0.15734952  0.90708353    -0.12500
C870        C  0.78743177  0.12165026  0.88792586     0.01500
H871        H  0.69773334  0.09401976  0.92299236     0.14500
H872        H  0.81713343  0.17416602  0.90407076     0.14500
C873        C  0.82034170  0.11064716  0.86359998     0.36100
C874        C  0.69675229  0.15947127  0.96455816     0.36000
N875        N  0.84704211  0.10212169  0.84448836    -0.44200
N876        N  0.67263245  0.16894787  0.98640935    -0.44200
C877        C  0.85434185  0.73494438  0.59266027    -0.00600
C878        C  0.87418338  0.70486912  0.61263272    -0.12500
C879        C  0.90291786  0.71301081  0.64064616     0.01600
C880        C  0.91275518  0.75208458  0.64892434    -0.00700
C881        C  0.89211228  0.78213133  0.62981719    -0.12500
C882        C  0.86304264  0.77401989  0.60216916     0.01500
H883        H  0.86768087  0.67453878  0.60572422     0.14500
H884        H  0.89932842  0.81250752  0.63606859     0.14500
C885        C  0.84443286  0.80626460  0.58233118     0.36100
C886        C  0.92351451  0.68082237  0.65857179     0.36000
N887        N  0.82963445  0.83218852  0.56641857    -0.44200
N888        N  0.94007644  0.65499344  0.67284197    -0.44200
C889        C  0.08473321  0.75402858  0.64654969    -0.00600
C890        C  0.09275911  0.77902565  0.61490829    -0.12500
C891        C  0.12256377  0.77085284  0.58829419     0.01600
C892        C  0.14560469  0.73699026  0.59311579    -0.00700
C893        C  0.13794192  0.71205183  0.62498948    -0.12500
C894        C  0.10775070  0.72019911  0.65158633     0.01500
H895        H  0.07504616  0.80497488  0.61033387     0.14500
H896        H  0.15539246  0.68583493  0.62897455     0.14500
C897        C  0.10162119  0.69381243  0.68390300     0.36100
C898        C  0.12701491  0.79665743  0.55519384     0.36000
N899        N  0.09670764  0.67259735  0.70975563    -0.44200
N900        N  0.13039606  0.81724110  0.52860158    -0.44200
C901        C  0.91138807  0.89400524  0.74269561    -0.00600
C902        C  0.87774922  0.88466983  0.72075890    -0.12500
C903        C  0.84082534  0.90003259  0.73074626     0.01600
C904        C  0.83720695  0.92382342  0.76394713    -0.00700
C905        C  0.87099171  0.93444838  0.78453265    -0.12500
C906        C  0.90781612  0.92075889  0.77375369     0.01500
H907        H  0.88003022  0.86462737  0.69647212     0.14500
H908        H  0.86882483  0.95461121  0.80879359     0.14500
C909        C  0.94118138  0.93497204  0.79532348     0.36100
C910        C  0.80732243  0.89082163  0.70693496     0.36000
N911        N  0.96779696  0.94646292  0.81265803    -0.44200
N912        N  0.78051134  0.88373549  0.68764233    -0.44200
C913        C  0.35506463  0.08669851  0.77205159    -0.00600
C914        C  0.37947955  0.10212617  0.80133501    -0.12500
C915        C  0.40877777  0.12950125  0.79265591     0.01600
C916        C  0.41482414  0.14153762  0.75382953    -0.00700
C917        C  0.38986983  0.12715040  0.72466620    -0.12500
C918        C  0.35976715  0.10059062  0.73346722     0.01500
H919        H  0.37598907  0.09245312  0.83127328     0.14500
H920        H  0.39400295  0.13668249  0.69475296     0.14500
C921        C  0.33494054  0.08756746  0.70212219     0.36100
C922        C  0.43353381  0.14323547  0.82378543     0.36000
N923        N  0.31486263  0.07743807  0.67699046    -0.44200
N924        N  0.45342408  0.15432975  0.84865434    -0.44200
C925        C  0.35260168  0.91628574  0.77574724    -0.00600
C926        C  0.36051707  0.91040201  0.73604125    -0.12500
C927        C  0.38886884  0.88339158  0.72352373     0.01600
C928        C  0.41088244  0.86135096  0.75114219    -0.00700
C929        C  0.40187716  0.86612358  0.79080289    -0.12500
C930        C  0.37315078  0.89282300  0.80328682     0.01500
H931        H  0.34496227  0.92756071  0.71442305     0.14500
H932        H  0.41770137  0.84922452  0.81242801     0.14500
C933        C  0.36576010  0.89510332  0.84473414     0.36100
C934        C  0.39441024  0.87950401  0.68191568     0.36000
N935        N  0.35993320  0.89678832  0.87795546    -0.44200
N936        N  0.39871463  0.87644913  0.64857059    -0.44200
C937        C  0.15758895  0.93997714  0.75696881    -0.00600
C938        C  0.16276479  0.90388239  0.73824898    -0.12500
C939        C  0.13014677  0.88048718  0.72911809     0.01600
C940        C  0.09192929  0.89348269  0.73841730    -0.00700
C941        C  0.08658196  0.93055677  0.75396624    -0.12500
C942        C  0.11862413  0.95383854  0.76327848     0.01500
H943        H  0.19214182  0.89292315  0.73293716     0.14500
H944        H  0.05712701  0.94051154  0.76094954     0.14500
C945        C  0.10983087  0.99091112  0.78136288     0.36100
C946        C  0.13655176  0.84254221  0.71204999     0.36000
N947        N  0.10176944  0.01999844  0.79650493    -0.44200
N948        N  0.14181203  0.81203135  0.69859196    -0.44200
C949        C  0.76085533  0.64086405  0.92574370    -0.00600
C950        C  0.78873548  0.62543998  0.89965732    -0.12500
C951        C  0.77825516  0.59757031  0.87155837     0.01600
C952        C  0.73925801  0.58372012  0.86984060    -0.00700
C953        C  0.71159420  0.59906331  0.89630557    -0.12500
C954        C  0.72180450  0.62780217  0.92350930     0.01500
H955        H  0.81895417  0.63507384  0.90142449     0.14500
H956        H  0.68184215  0.58821967  0.89606515     0.14500
C957        C  0.69213904  0.64198080  0.95011636     0.36100
C958        C  0.80857432  0.58236210  0.84630487     0.36000
N959        N  0.66843535  0.65344860  0.97146203    -0.44200
N960        N  0.83285173  0.57010048  0.82606396    -0.44200
C961        C  0.75084655  0.58406627  0.15215491    -0.00600
C962        C  0.72563281  0.61578771  0.14434017    -0.12500
C963        C  0.73487059  0.64374191  0.11596505     0.01600
C964        C  0.76996905  0.64019919  0.09445805    -0.00700
C965        C  0.79594709  0.60941086  0.10347947    -0.12500
C966        C  0.78682718  0.58157495  0.13196248     0.01500
H967        H  0.69816602  0.61853486  0.16017054     0.14500
H968        H  0.82324899  0.60633098  0.08744385     0.14500
C969        C  0.81411254  0.54989142  0.13826470     0.36100
C970        C  0.70822080  0.67604638  0.11026256     0.36000
N971        N  0.83606552  0.52457724  0.14329042    -0.44200
N972        N  0.68695112  0.70203808  0.10583100    -0.44200
C973        C  0.92350746  0.75872345  0.83816533    -0.00600
C974        C  0.92588432  0.72005538  0.85202920    -0.12500
C975        C  0.91241114  0.71017235  0.88946696     0.01600
C976        C  0.89726331  0.73955406  0.91412796    -0.00700
C977        C  0.89319386  0.77754109  0.89961374    -0.12500
C978        C  0.90502443  0.78714139  0.86195190     0.01500
H979        H  0.93975425  0.69773746  0.83432199     0.14500
H980        H  0.87989107  0.79998888  0.91759364     0.14500
C981        C  0.89767019  0.82665497  0.84918116     0.36100
C982        C  0.91595453  0.67015102  0.90225565     0.36000
N983        N  0.89136550  0.85843044  0.83960776    -0.44200
N984        N  0.91870043  0.63800489  0.91233014    -0.44200
C985        C  0.76653108  0.83590166  0.93841958    -0.00600
C986        C  0.78861671  0.86906262  0.94797994    -0.12500
C987        C  0.77910346  0.90598976  0.93351357     0.01600
C988        C  0.74738218  0.91056119  0.90751451    -0.00700
C989        C  0.72415109  0.87759132  0.89904148    -0.12500
C990        C  0.73318939  0.84053881  0.91468089     0.01500
H991        H  0.81322491  0.86629601  0.96778034     0.14500
H992        H  0.69967327  0.88043425  0.87913004     0.14500
C993        C  0.70894562  0.80762084  0.90471419     0.36100
C994        C  0.80203068  0.93873226  0.94679641     0.36000
N995        N  0.68947821  0.78121960  0.89674093    -0.44200
N996        N  0.82031644  0.96490773  0.95770166    -0.44200
C997        C  0.08348347  0.75060417  0.37135745    -0.00600
C998        C  0.11178444  0.77864475  0.38093741    -0.12500
C999        C  0.14086682  0.77085444  0.40871466     0.01600
C1000       C  0.14188961  0.73424313  0.42795643    -0.00700
C1001       C  0.11328674  0.70621573  0.41823635    -0.12500
C1002       C  0.08428539  0.71415311  0.39028581     0.01500
H1003       H  0.11079330  0.80689566  0.36705570     0.14500
H1004       H  0.11321860  0.67825784  0.43270391     0.14500
C1005       C  0.05427887  0.68538397  0.38340491     0.36100
C1006       C  0.16803033  0.80180795  0.41770157     0.36000
N1007       N  0.03006308  0.66240192  0.37820270    -0.44200
N1008       N  0.18965921  0.82675468  0.42480480    -0.44200
C1009       C  0.85359568  0.73120510  0.42019587    -0.00600
C1010       C  0.85874130  0.77104629  0.41232749    -0.12500
C1011       C  0.88610659  0.78389875  0.38462378     0.01600
C1012       C  0.91028736  0.75656085  0.36464545    -0.00700
C1013       C  0.90311857  0.71667099  0.37038813    -0.12500
C1014       C  0.87487522  0.70378232  0.39723638     0.01500
H1015       H  0.84174168  0.79251304  0.42834762     0.14500
H1016       H  0.92025699  0.69524215  0.35445670     0.14500
C1017       C  0.86878631  0.66214568  0.40019894     0.36100
C1018       C  0.88823874  0.82544370  0.37757310     0.36000
N1019       N  0.86389415  0.62878612  0.40227685    -0.44200
N1020       N  0.88968903  0.85872983  0.37194589    -0.44200
C1021       C  0.93927632  0.74475721  0.17416413    -0.00600
C1022       C  0.96113112  0.74161717  0.13933447    -0.12500
C1023       C  0.94271861  0.73582676  0.10335273     0.01600
C1024       C  0.90162379  0.73343253  0.10175286    -0.00700
C1025       C  0.87987239  0.73418927  0.13670967    -0.12500
C1026       C  0.89839502  0.73948877  0.17287305     0.01500
H1027       H  0.99264449  0.74582691  0.14001887     0.14500
H1028       H  0.84818120  0.73215426  0.13553165     0.14500
C1029       C  0.87471605  0.74253971  0.20768147     0.36100
C1030       C  0.96623977  0.73561466  0.06825165     0.36000
N1031       N  0.85580679  0.74495268  0.23565870    -0.44200
N1032       N  0.98505574  0.73555357  0.04010225    -0.44200
C1033       C  0.85829882  0.26158472  0.42942923    -0.00600
C1034       C  0.84712705  0.25380987  0.39080051    -0.12500
C1035       C  0.87546700  0.24525355  0.36208512     0.01600
C1036       C  0.91558593  0.24430603  0.37200950    -0.00700
C1037       C  0.92644549  0.25036414  0.41091318    -0.12500
C1038       C  0.89838968  0.25898878  0.43948668     0.01500
H1039       H  0.81638738  0.25509099  0.38292052     0.14500
H1040       H  0.95712415  0.24845132  0.41900225     0.14500
C1041       C  0.91141180  0.26372744  0.47926391     0.36100
C1042       C  0.86275220  0.23572554  0.32316686     0.36000
N1043       N  0.92170239  0.26737646  0.51116413    -0.44200
N1044       N  0.85277453  0.22769771  0.29199216    -0.44200
C1045       C  0.14030010  0.27419175  0.42818568    -0.00600
C1046       C  0.14288417  0.23700020  0.41145088    -0.12500
C1047       C  0.11611062  0.22459755  0.38319818     0.01600
C1048       C  0.08516544  0.24958117  0.37089272    -0.00700
C1049       C  0.08303377  0.28716917  0.38699890    -0.12500
C1050       C  0.10990528  0.29957841  0.41537251     0.01500
H1051       H  0.16614947  0.21731739  0.42040612     0.14500
H1052       H  0.05949115  0.30663676  0.37832391     0.14500
C1053       C  0.10423542  0.33798304  0.43176879     0.36100
C1054       C  0.12186128  0.18596409  0.36743108     0.36000
N1055       N  0.09951671  0.36875577  0.44485392    -0.44200
N1056       N  0.12693876  0.15485527  0.35535507    -0.44200
C1057       C  0.92737835  0.24304541  0.17584189    -0.00600
C1058       C  0.93507178  0.21916850  0.14345908    -0.12500
C1059       C  0.92167532  0.22859735  0.10629694     0.01600
C1060       C  0.89873511  0.26260154  0.10035543    -0.00700
C1061       C  0.89043119  0.28649579  0.13292354    -0.12500
C1062       C  0.90476214  0.27715258  0.17037280     0.01500
H1063       H  0.95320866  0.19330870  0.14676562     0.14500
H1064       H  0.87247008  0.31239429  0.12927901     0.14500
C1065       C  0.89628947  0.30307548  0.20243474     0.36100
C1066       C  0.93279710  0.20255461  0.07503054     0.36000
N1067       N  0.88976139  0.32397601  0.22812582    -0.44200
N1068       N  0.94178267  0.18158448  0.05012489    -0.44200
C1069       C  0.91487708  0.24669641  0.65018434    -0.00600
C1070       C  0.89439944  0.21738338  0.62980750    -0.12500
C1071       C  0.86565365  0.22639472  0.60223401     0.01600
C1072       C  0.85612815  0.26574693  0.59452831    -0.00700
C1073       C  0.87550746  0.29505781  0.61598125    -0.12500
C1074       C  0.90464625  0.28602380  0.64327846     0.01500
H1075       H  0.90128771  0.18685738  0.63473207     0.14500
H1076       H  0.86856013  0.32554891  0.61093429     0.14500
C1077       C  0.92374117  0.31789398  0.66301706     0.36100
C1078       C  0.84732315  0.19440128  0.58196757     0.36000
N1079       N  0.93905501  0.34352317  0.67869536    -0.44200
N1080       N  0.83282231  0.16864408  0.56574460    -0.44200
C1081       C  0.08668813  0.24493724  0.65044782    -0.00600
C1082       C  0.10580117  0.28105538  0.65453761    -0.12500
C1083       C  0.13451835  0.29326360  0.62761235     0.01600
C1084       C  0.14520979  0.26893657  0.59611139    -0.00700
C1085       C  0.12762145  0.23225106  0.59295812    -0.12500
C1086       C  0.09849467  0.22020370  0.61926246     0.01500
H1087       H  0.09775441  0.30026328  0.67836248     0.14500
H1088       H  0.13581146  0.21331778  0.56893155     0.14500
C1089       C  0.08127789  0.18230755  0.61283760     0.36100
C1090       C  0.15328320  0.33039466  0.63366281     0.36000
N1091       N  0.06743916  0.15203406  0.60726735    -0.44200
N1092       N  0.16822513  0.36011558  0.63920505    -0.44200
C1093       C  0.89995558  0.11386077  0.73866833    -0.00600
C1094       C  0.90015649  0.07494904  0.72635463    -0.12500
C1095       C  0.86608799  0.05230543  0.72900897     0.01600
C1096       C  0.83144857  0.06822998  0.74520199    -0.00700
C1097       C  0.82996125  0.10831519  0.75291528    -0.12500
C1098       C  0.86374489  0.13134506  0.74888623     0.01500
H1099       H  0.92724298  0.06177291  0.71612527     0.14500
H1100       H  0.80313162  0.12118366  0.76416070     0.14500
C1101       C  0.86029441  0.17299739  0.75367259     0.36100
C1102       C  0.86722751  0.01300612  0.71422564     0.36000
N1103       N  0.85722419  0.20652213  0.75608975    -0.44200
N1104       N  0.86857925  0.98210306  0.70081110    -0.44200
C1105       C  0.08808187  0.11256677  0.75359488    -0.00600
C1106       C  0.10579533  0.12215147  0.78910814    -0.12500
C1107       C  0.14364591  0.10936304  0.79809480     0.01600
C1108       C  0.16415611  0.08464515  0.77200756    -0.00700
C1109       C  0.14711290  0.07661739  0.73551018    -0.12500
C1110       C  0.10953381  0.09057844  0.72609607     0.01500
H1111       H  0.09029436  0.14034173  0.80986170     0.14500
H1112       H  0.16203022  0.05742045  0.71517708     0.14500
C1113       C  0.09254936  0.07982656  0.68918152     0.36100
C1114       C  0.16056398  0.12239358  0.83431308     0.36000
N1115       N  0.07871614  0.07113583  0.65970526    -0.44200
N1116       N  0.17388392  0.13327999  0.86327006    -0.44200
C1117       C  0.89172979  0.27503118  0.90991136    -0.00600
C1118       C  0.92974376  0.28928466  0.90411455    -0.12500
C1119       C  0.94768196  0.28637417  0.86730255     0.01600
C1120       C  0.92794033  0.26780437  0.83628183    -0.00700
C1121       C  0.88847640  0.25807132  0.84107761    -0.12500
C1122       C  0.86995016  0.26264737  0.87721892     0.01500
H1123       H  0.94602685  0.30089401  0.92856489     0.14500
H1124       H  0.87264063  0.24502576  0.81725667     0.14500
C1125       C  0.82838728  0.25514383  0.87984849     0.36100
C1126       C  0.98646130  0.30224408  0.86216197     0.36000
N1127       N  0.79489635  0.25006308  0.88142943    -0.44200
N1128       N  0.01707059  0.31622795  0.85829049    -0.44200
C1129       C  0.25725826  0.58900578  0.15115288    -0.00600
C1130       C  0.28693536  0.60798715  0.12969150    -0.12500
C1131       C  0.27799179  0.63698865  0.10210720     0.01600
C1132       C  0.23855553  0.64714037  0.09505446    -0.00700
C1133       C  0.20897346  0.62914299  0.11745268    -0.12500
C1134       C  0.21799092  0.60061257  0.14553898     0.01500
H1135       H  0.31729859  0.59953187  0.13394785     0.14500
H1136       H  0.17853552  0.63681847  0.11235735     0.14500
C1137       C  0.18627521  0.58195579  0.16631300     0.36100
C1138       C  0.30956155  0.65389085  0.07961470     0.36000
N1139       N  0.16089772  0.56689287  0.18296396    -0.44200
N1140       N  0.33480321  0.66740216  0.06147544    -0.44200
C1141       C  0.23889751  0.64321241  0.92551944    -0.00600
C1142       C  0.27893720  0.63366118  0.92479827    -0.12500
C1143       C  0.29394575  0.60588499  0.89877906     0.01600
C1144       C  0.26849081  0.58634328  0.87258139    -0.00700
C1145       C  0.22868931  0.59687955  0.87245856    -0.12500
C1146       C  0.21381991  0.62503080  0.89813851     0.01500
H1147       H  0.29874013  0.64743593  0.94523591     0.14500
H1148       H  0.20880432  0.58297907  0.85219514     0.14500
C1149       C  0.17273329  0.63472174  0.89492843     0.36100
C1150       C  0.33558300  0.59814863  0.90040674     0.36000
N1151       N  0.13979272  0.64225472  0.89195273    -0.44200
N1152       N  0.36897330  0.59220244  0.90179679    -0.44200
C1153       C  0.10541773  0.73688778  0.91097841    -0.00600
C1154       C  0.12181889  0.76204472  0.88291251    -0.12500
C1155       C  0.10622154  0.76534636  0.84553133     0.01600
C1156       C  0.07313130  0.74343007  0.83508560    -0.00700
C1157       C  0.05777969  0.71644363  0.86209968    -0.12500
C1158       C  0.07393789  0.71264397  0.89974794     0.01500
H1159       H  0.14641950  0.78038350  0.89056281     0.14500
H1160       H  0.03148876  0.70034806  0.85476251     0.14500
C1161       C  0.05620665  0.68556226  0.92677009     0.36100
C1162       C  0.12319467  0.79364745  0.81929171     0.36000
N1163       N  0.04210976  0.66369991  0.94839578    -0.44200
N1164       N  0.13731931  0.81649051  0.79878751    -0.44200
C1165       C  0.10579666  0.74258487  0.10366552    -0.00600
C1166       C  0.11351409  0.77910517  0.12041744    -0.12500
C1167       C  0.10320205  0.78728492  0.15901648     0.01600
C1168       C  0.08214191  0.75939656  0.18124011    -0.00700
C1169       C  0.07631225  0.72205153  0.16516354    -0.12500
C1170       C  0.08857087  0.71330049  0.12702642     0.01500
H1171       H  0.12847223  0.80133655  0.10353989     0.14500
H1172       H  0.06048531  0.70008749  0.18164781     0.14500
C1173       C  0.08165199  0.67461531  0.11205683     0.36100
C1174       C  0.11493518  0.82454907  0.17484906     0.36000
N1175       N  0.07635906  0.64355035  0.10003689    -0.44200
N1176       N  0.12463591  0.85427638  0.18750001    -0.44200
C1177       C  0.25475361  0.90692312  0.90190012    -0.00600
C1178       C  0.24328621  0.87427487  0.87990505    -0.12500
C1179       C  0.24010021  0.83726634  0.89715795     0.01600
C1180       C  0.24784882  0.83281319  0.93716254    -0.00700
C1181       C  0.26165441  0.86493918  0.95847564    -0.12500
C1182       C  0.26542869  0.90177687  0.94117127     0.01500
H1183       H  0.23590569  0.87791599  0.84936070     0.14500
H1184       H  0.26675398  0.86182440  0.98954813     0.14500
C1185       C  0.27669124  0.93437484  0.96522461     0.36100
C1186       C  0.22729617  0.80479241  0.87375707     0.36000
N1187       N  0.28556973  0.96051654  0.98455793    -0.44200
N1188       N  0.21756973  0.77878432  0.85465141    -0.44200
C1189       C  0.23756366  0.35889475  0.92265322    -0.00600
C1190       C  0.27768782  0.36564094  0.91740238    -0.12500
C1191       C  0.29099530  0.39407298  0.89114810     0.01600
C1192       C  0.26385701  0.41519235  0.86789362    -0.00700
C1193       C  0.22386251  0.40673233  0.87147771    -0.12500
C1194       C  0.21045783  0.37966308  0.89915460     0.01500
H1195       H  0.29867302  0.35021071  0.93551100     0.14500
H1196       H  0.20279784  0.42289097  0.85411748     0.14500
C1197       C  0.16862468  0.37491326  0.90337143     0.36100
C1198       C  0.33264571  0.40153412  0.88986794     0.36000
N1199       N  0.13495758  0.37209577  0.90651417    -0.44200
N1200       N  0.36603818  0.40746716  0.88967772    -0.44200
C1201       C  0.25789954  0.41714424  0.15208586    -0.00600
C1202       C  0.28546521  0.39075042  0.13623405    -0.12500
C1203       C  0.27502304  0.36360566  0.10760172     0.01600
C1204       C  0.23592790  0.36208698  0.09418965    -0.00700
C1205       C  0.20802264  0.38716427  0.11152610    -0.12500
C1206       C  0.21851861  0.41445606  0.13991785     0.01500
H1207       H  0.31578764  0.39179516  0.14560679     0.14500
H1208       H  0.17769472  0.38634295  0.10219397     0.14500
C1209       C  0.18834621  0.44026655  0.15451566     0.36100
C1210       C  0.30533807  0.33824856  0.09247979     0.36000
N1211       N  0.16407595  0.46092684  0.16607846    -0.44200
N1212       N  0.32975107  0.31803025  0.08042944    -0.44200
C1213       C  0.06982254  0.27064278  0.18355465    -0.00600
C1214       C  0.10917062  0.25991178  0.17925282    -0.12500
C1215       C  0.12814907  0.26393922  0.14316834     0.01600
C1216       C  0.10700651  0.27695018  0.11013224    -0.00700
C1217       C  0.06911683  0.29176397  0.11545382    -0.12500
C1218       C  0.05063926  0.28909780  0.15198187     0.01500
H1219       H  0.12441573  0.24629064  0.20344361     0.14500
H1220       H  0.05325788  0.30363062  0.09075028     0.14500
C1221       C  0.01178923  0.30511227  0.15609788     0.36100
C1222       C  0.16954329  0.25538761  0.14104034     0.36000
N1223       N  0.98119055  0.31945643  0.15877772    -0.44200
N1224       N  0.20293826  0.24947382  0.13996743    -0.44200
C1225       C  0.06774324  0.24152928  0.84691401    -0.00600
C1226       C  0.05109296  0.22652147  0.88133919    -0.12500
C1227       C  0.06511080  0.23717637  0.91793541     0.01600
C1228       C  0.09691706  0.26324789  0.92073821    -0.00700
C1229       C  0.11389932  0.27797447  0.88615216    -0.12500
C1230       C  0.09936218  0.26755662  0.84936689     0.01500
H1231       H  0.02620935  0.20691821  0.87964697     0.14500
H1232       H  0.13960313  0.29636504  0.88774859     0.14500
C1233       C  0.11844640  0.28214623  0.81470398     0.36100
C1234       C  0.04596029  0.22106189  0.95197890     0.36000
N1235       N  0.13388697  0.29356434  0.78684707    -0.44200
N1236       N  0.03068684  0.20800398  0.97920733    -0.44200
C1237       C  0.22895007  0.16704653  0.94036936    -0.00600
C1238       C  0.21135752  0.13281430  0.95448044    -0.12500
C1239       C  0.22262825  0.09617807  0.94069102     0.01600
C1240       C  0.25149485  0.09324133  0.91120353    -0.00700
C1241       C  0.27010637  0.12752633  0.89796078    -0.12500
C1242       C  0.25929080  0.16428411  0.91261538     0.01500
H1243       H  0.18919349  0.13464509  0.97719561     0.14500
H1244       H  0.29210455  0.12580284  0.87511705     0.14500
C1245       C  0.27835061  0.19876814  0.89761874     0.36100
C1246       C  0.20463714  0.06215013  0.95806065     0.36000
N1247       N  0.29350855  0.22650043  0.88560346    -0.44200
N1248       N  0.19037153  0.03490992  0.97213609    -0.44200
C1249       C  0.64762943  0.91809714  0.24807683    -0.00600
C1250       C  0.64175172  0.88593530  0.22330571    -0.12500
C1251       C  0.61393992  0.85713022  0.23211270     0.01600
C1252       C  0.59121297  0.86007591  0.26649144    -0.00700
C1253       C  0.59787382  0.89174413  0.29173169    -0.12500
C1254       C  0.62547461  0.92066997  0.28277391     0.01500
H1255       H  0.65880848  0.88342316  0.19665618     0.14500
H1256       H  0.58041520  0.89475101  0.31805469     0.14500
C1257       C  0.62847448  0.95388147  0.30841697     0.36100
C1258       C  0.60987389  0.82472831  0.20559521     0.36000
N1259       N  0.63072173  0.98059917  0.32885516    -0.44200
N1260       N  0.60668564  0.79878939  0.18429304    -0.44200
C1261       C  0.64914781  0.08886365  0.24664899    -0.00600
C1262       C  0.62971970  0.10929519  0.21669136    -0.12500
C1263       C  0.60122515  0.13792343  0.22494611     0.01600
C1264       C  0.59058408  0.14598882  0.26395287    -0.00700
C1265       C  0.61070571  0.12624078  0.29395500    -0.12500
C1266       C  0.64008199  0.09845877  0.28570878     0.01500
H1267       H  0.63660225  0.10259629  0.18653281     0.14500
H1268       H  0.60323103  0.13235843  0.32410041     0.14500
C1269       C  0.65919857  0.07907988  0.31788580     0.36100
C1270       C  0.58205115  0.15718640  0.19275253     0.36000
N1271       N  0.67466790  0.06366757  0.34367081    -0.44200
N1272       N  0.56670351  0.17275012  0.16699065    -0.44200
C1273       C  0.75474778  0.08978870  0.11250651    -0.00600
C1274       C  0.72518461  0.11840911  0.10920645    -0.12500
C1275       C  0.73340251  0.15582545  0.09462344     0.01600
C1276       C  0.77199747  0.16533878  0.08301720    -0.00700
C1277       C  0.80168005  0.13723159  0.08775107    -0.12500
C1278       C  0.79361540  0.09997325  0.10199205     0.01500
H1279       H  0.69544340  0.11167566  0.11821284     0.14500
H1280       H  0.83154971  0.14378415  0.07897948     0.14500
C1281       C  0.82642825  0.07345285  0.10558993     0.36100
C1282       C  0.70182607  0.18389608  0.09265847     0.36000
N1283       N  0.85306395  0.05263593  0.10830367    -0.44200
N1284       N  0.67649737  0.20639401  0.09127991    -0.44200
C1285       C  0.74304081  0.90243033  0.11700048    -0.00600
C1286       C  0.75297548  0.86849685  0.13799244    -0.12500
C1287       C  0.75731368  0.83235061  0.11926554     0.01600
C1288       C  0.75256192  0.83005211  0.07867260    -0.00700
C1289       C  0.74024189  0.86340477  0.05802529    -0.12500
C1290       C  0.73492054  0.89932636  0.07688420     0.01500
H1291       H  0.75851229  0.87057955  0.16896498     0.14500
H1292       H  0.73707264  0.86188117  0.02658533     0.14500
C1293       C  0.72436485  0.93305071  0.05387274     0.36100
C1294       C  0.76901463  0.79862151  0.14170287     0.36000
N1295       N  0.71584861  0.96002839  0.03536300    -0.44200
N1296       N  0.77806505  0.77143971  0.15964907    -0.44200
C1297       C  0.90739508  0.88954086  0.27606843    -0.00600
C1298       C  0.87305019  0.86939565  0.26591907    -0.12500
C1299       C  0.83732764  0.88925612  0.26143126     0.01600
C1300       C  0.83597278  0.92999955  0.26625687    -0.00700
C1301       C  0.86977749  0.94967378  0.27882763    -0.12500
C1302       C  0.90524826  0.92971337  0.28427864     0.01500
H1303       H  0.87442880  0.83825230  0.26039315     0.14500
H1304       H  0.86906373  0.98119103  0.28186958     0.14500
C1305       C  0.93971709  0.95158294  0.29490914     0.36100
C1306       C  0.80306869  0.86766495  0.24979722     0.36000
N1307       N  0.96743693  0.96895430  0.30343489    -0.44200
N1308       N  0.77555987  0.85010284  0.24102741    -0.44200
C1309       C  0.84276519  0.07540041  0.24438510    -0.00600
C1310       C  0.87596045  0.07113043  0.22043737    -0.12500
C1311       C  0.91194620  0.08756532  0.23018099     0.01600
C1312       C  0.91588449  0.10904957  0.26522242    -0.00700
C1313       C  0.88244235  0.11370567  0.28919327    -0.12500
C1314       C  0.84608747  0.09724625  0.27899137     0.01500
H1315       H  0.87411529  0.05400518  0.19393348     0.14500
H1316       H  0.88433590  0.13112884  0.31547010     0.14500
C1317       C  0.81228711  0.10496891  0.30322180     0.36100
C1318       C  0.94387634  0.08182878  0.20293912     0.36000
N1319       N  0.78502908  0.11150171  0.32233825    -0.44200
N1320       N  0.96920053  0.07739479  0.18081971    -0.44200
C1321       C  0.36051492  0.91741941  0.24003425    -0.00600
C1322       C  0.36749236  0.90790780  0.27914627    -0.12500
C1323       C  0.39690853  0.88126034  0.28963043     0.01600
C1324       C  0.41946887  0.86208471  0.26049163    -0.00700
C1325       C  0.41123485  0.87022970  0.22123935    -0.12500
C1326       C  0.38268929  0.89800886  0.21081890     0.01500
H1327       H  0.35087609  0.92255255  0.30186586     0.14500
H1328       H  0.42812032  0.85584179  0.19856633     0.14500
C1329       C  0.37711816  0.90595801  0.16986010     0.36100
C1330       C  0.40320527  0.87486112  0.33074976     0.36000
N1331       N  0.37320856  0.91229409  0.13694609    -0.44200
N1332       N  0.40795525  0.87068419  0.36388715    -0.44200
C1333       C  0.41714203  0.14418363  0.26101675    -0.00600
C1334       C  0.39281905  0.12767805  0.29006127    -0.12500
C1335       C  0.36406748  0.09991600  0.28125547     0.01600
C1336       C  0.35894967  0.08736261  0.24240944    -0.00700
C1337       C  0.38206524  0.10507783  0.21306775    -0.12500
C1338       C  0.41063328  0.13322526  0.22187350     0.01500
H1339       H  0.39629915  0.13627944  0.32025770     0.14500
H1340       H  0.37833423  0.09652353  0.18289252     0.14500
C1341       C  0.43291034  0.14980174  0.19006001     0.36100
C1342       C  0.34009512  0.08542385  0.31288548     0.36000
N1343       N  0.45055399  0.16319189  0.16445708    -0.44200
N1344       N  0.32085524  0.07401167  0.33830700    -0.44200
C1345       C  0.23330754  0.84030189  0.07729793    -0.00600
C1346       C  0.21120448  0.87344603  0.06725480    -0.12500
C1347       C  0.21999711  0.91014094  0.08231776     0.01600
C1348       C  0.25161120  0.91437248  0.10844059    -0.00700
C1349       C  0.27452419  0.88130261  0.11762157    -0.12500
C1350       C  0.26575381  0.84445364  0.10209359     0.01500
H1351       H  0.18689088  0.87072519  0.04711831     0.14500
H1352       H  0.29818149  0.88379253  0.13843552     0.14500
C1353       C  0.28880009  0.81110986  0.11384918     0.36100
C1354       C  0.19582939  0.94272263  0.07038846     0.36000
N1355       N  0.30712225  0.78431520  0.12345448    -0.44200
N1356       N  0.17626663  0.96867485  0.06087785    -0.44200
C1357       C  0.24609539  0.10073714  0.12189052    -0.00600
C1358       C  0.27792945  0.11731227  0.10135772    -0.12500
C1359       C  0.27456632  0.15420004  0.08340644     0.01600
C1360       C  0.23936977  0.17548532  0.08690720    -0.00700
C1361       C  0.20873916  0.16006062  0.10932486    -0.12500
C1362       C  0.21122733  0.12316407  0.12603776     0.01500
H1363       H  0.30501020  0.10097630  0.09818607     0.14500
H1364       H  0.18106516  0.17573023  0.11097054     0.14500
C1365       C  0.17610167  0.10882695  0.14495572     0.36100
C1366       C  0.30615205  0.16816292  0.05906158     0.36000
N1367       N  0.14777482  0.09757090  0.15983419    -0.44200
N1368       N  0.33136611  0.17938023  0.03938400    -0.44200
C1369       C  0.16516354  0.92884271  0.25629841    -0.00600
C1370       C  0.12977631  0.94497213  0.24293043    -0.12500
C1371       C  0.09364441  0.92924278  0.25375603     0.01600
C1372       C  0.09225522  0.89586051  0.27784465    -0.00700
C1373       C  0.12763382  0.88088494  0.29306966    -0.12500
C1374       C  0.16402258  0.89736146  0.28267017     0.01500
H1375       H  0.13034315  0.97014477  0.22372603     0.14500
H1376       H  0.12703729  0.85521018  0.31153729     0.14500
C1377       C  0.19966459  0.88032703  0.29758273     0.36100
C1378       C  0.05844973  0.94820736  0.23987319     0.36000
N1379       N  0.22828380  0.86666582  0.30951460    -0.44200
N1380       N  0.03026295  0.96347985  0.22888161    -0.44200
C1381       C  0.10117745  0.11608725  0.27556799    -0.00600
C1382       C  0.13482814  0.13348655  0.25924956    -0.12500
C1383       C  0.17034321  0.11292297  0.25648151     0.01600
C1384       C  0.17233188  0.07389717  0.26909875    -0.00700
C1385       C  0.13956383  0.05726968  0.28761478    -0.12500
C1386       C  0.10437227  0.07819299  0.29165693     0.01500
H1387       H  0.13315680  0.16298098  0.24782588     0.14500
H1388       H  0.14072393  0.02692628  0.29668381     0.14500
C1389       C  0.07142430  0.05900503  0.30995593     0.36100
C1390       C  0.20362537  0.13138301  0.23806857     0.36000
N1391       N  0.04513202  0.04365247  0.32484800    -0.44200
N1392       N  0.23043658  0.14607254  0.22344202    -0.44200
loop_ 
_geom_bond_atom_site_label_1 
_geom_bond_atom_site_label_2 
_geom_bond_distance 
_geom_bond_site_symmetry_2 
_ccdc_geom_bond_type 
O1           C16   1.266       .  A
O1           Al9   1.933   1_545  S
C2           O12   1.256       .  A
C2            O3   1.258       .  A
C2         C1348   1.483       .  S
O3           Al5   1.905   1_565  S
O4            C6   1.261       .  A
O4           Al5   1.880   1_565  S
Al5          O13   1.856       .  S
Al5          O15   1.893       .  S
Al5          O14   1.774       .  S
C6           O19   1.272       .  A
C6         C1369   1.478       .  S
O7           C17   1.267       .  A
O7           Al9   1.916       .  S
O8           C21   1.258       .  A
O8          Al18   1.880       .  S
Al9          O22   1.946   1_565  S
Al9          O19   1.962       .  S
Al9          O14   1.779   1_565  S
O10          C17   1.263       .  A
O10         Al18   1.912   1_565  S
O11          C20   1.270       .  A
O11         Al18   1.948       .  S
O12         Al18   1.898   1_565  S
O13          C20   1.255       .  A
O14         Al18   1.784       .  S
O15          C16   1.256       .  A
C16        C1384   1.472       .  S
C17        C1321   1.492       .  S
C20        C1357   1.492       .  S
C21          O22   1.270       .  A
C21        C1336   1.499       .  S
O23          C38   1.263       .  A
O23         Al31   1.931   1_565  S
C24          O34   1.258       .  A
C24          O25   1.260       .  A
C24        C1273   1.488       .  S
O25         Al27   1.915   1_545  S
O26          C28   1.263       .  A
O26         Al27   1.878   1_545  S
Al27         O35   1.888       .  S
Al27         O37   1.884       .  S
Al27         O36   1.774   1_565  S
C28          O41   1.274       .  A
C28        C1309   1.486       .  S
O29          C39   1.264       .  A
O29         Al31   1.922       .  S
O30          C43   1.260       .  A
O30         Al40   1.874   1_565  S
Al31         O44   1.944   1_545  S
Al31         O41   1.958       .  S
Al31         O36   1.779       .  S
O32          C39   1.261       .  A
O32         Al40   1.912       .  S
O33          C42   1.270       .  A
O33         Al40   1.952   1_565  S
O34         Al40   1.898       .  S
O35          C42   1.260       .  A
O36         Al40   1.782       .  S
O37          C38   1.254       .  A
C38        C1300   1.472       .  S
C39        C1261   1.496       .  S
C42        C1285   1.483       .  S
C43          O44   1.272       .  A
C43        C1249   1.485       .  S
O45          C60   1.264       .  A
O45         Al53   1.934       .  S
C46          O56   1.256       .  A
C46          O47   1.259       .  A
C46        C1228   1.482       .  S
O47         Al49   1.910   1_556  S
O48          C50   1.265       .  A
O48         Al49   1.883   1_556  S
Al49         O57   1.882       .  S
Al49         O59   1.862       .  S
Al49         O58   1.775       .  S
C50          O63   1.271       .  A
C50        C1237   1.473       .  S
O51          C61   1.263       .  A
O51         Al53   1.915   1_556  S
O52          C65   1.259       .  A
O52         Al62   1.868       .  S
Al53         O66   1.940       .  S
Al53         O63   1.938   1_554  S
Al53         O58   1.781       .  S
O54          C61   1.257       .  A
O54         Al62   1.893   1_556  S
O55          C64   1.268       .  A
O55         Al62   1.945       .  S
O56         Al62   1.899   1_556  S
O57          C64   1.259       .  A
O58         Al62   1.784       .  S
O59          C60   1.251       .  A
C60        C1360   1.471       .  S
C61        C1189   1.483       .  S
C64        C1216   1.482       .  S
C65          O66   1.271       .  A
C65        C1204   1.493       .  S
O67          C82   1.265       .  A
O67         Al75   1.930   1_556  S
C68          O78   1.255       .  A
C68          O69   1.260       .  A
C68        C1165   1.483       .  S
O69         Al71   1.911       .  S
O70          C72   1.259       .  A
O70         Al71   1.872       .  S
Al71         O79   1.867   1_554  S
Al71         O81   1.885   1_554  S
Al71         O80   1.776       .  S
C72          O85   1.269       .  A
C72        C1345   1.475       .  S
O73          C83   1.265       .  A
O73         Al75   1.918       .  S
O74          C87   1.258       .  A
O74         Al84   1.878   1_556  S
Al75         O88   1.934   1_554  S
Al75         O85   1.947       .  S
Al75         O80   1.785       .  S
O76          C83   1.262       .  A
O76         Al84   1.905       .  S
O77          C86   1.268       .  A
O77         Al84   1.949   1_556  S
O78         Al84   1.895       .  S
O79          C86   1.258       .  A
O80         Al84   1.787       .  S
O81          C82   1.256       .  A
C82        C1180   1.470       .  S
C83        C1132   1.487       .  S
C86        C1153   1.492       .  S
C87          O88   1.270       .  A
C87        C1141   1.492       .  S
O89         C104   1.262       .  A
O89         Al97   1.923   1_655  S
C90         O100   1.258       .  A
C90          O91   1.268       .  A
C90        C1105   1.479       .  S
O91         Al93   1.933   1_455  S
O92          C94   1.257       .  A
O92         Al93   1.864   1_455  S
Al93        O101   1.898       .  S
Al93        O103   1.892       .  S
Al93        O102   1.770       .  S
C94         O107   1.272       .  A
C94        C1225   1.473       .  S
O95         C105   1.263       .  A
O95         Al97   1.923       .  S
O96         C109   1.259       .  A
O96        Al106   1.855       .  S
Al97        O110   1.959   1_455  S
Al97        O107   1.949       .  S
Al97        O102   1.781   1_455  S
O98         C105   1.257       .  A
O98        Al106   1.903   1_455  S
O99         C108   1.265       .  A
O99        Al106   1.938       .  S
O100       Al106   1.886   1_455  S
O101        C108   1.259       .  A
O102       Al106   1.786       .  S
O103        C104   1.256       .  A
C104       C1120   1.474       .  S
C105       C1081   1.499       .  S
C108       C1093   1.483       .  S
C109        O110   1.277       .  A
C109       C1069   1.492       .  S
O111        C126   1.264       .  A
O111       Al119   1.930   1_455  S
C112        O122   1.262       .  A
C112        O113   1.262       .  A
C112       C1312   1.494       .  S
O113       Al115   1.914   1_655  S
O114        C116   1.262       .  A
O114       Al115   1.878   1_655  S
Al115       O123   1.896       .  S
Al115       O125   1.892       .  S
Al115       O124   1.767       .  S
C116        O129   1.274       .  A
C116       C1057   1.488       .  S
O117        C127   1.262       .  A
O117       Al119   1.922       .  S
O118        C131   1.261       .  A
O118       Al128   1.872       .  S
Al119       O132   1.969   1_655  S
Al119       O129   1.963       .  S
Al119       O124   1.777   1_655  S
O120        C127   1.257       .  A
O120       Al128   1.900   1_655  S
O121        C130   1.269       .  A
O121       Al128   1.943       .  S
O122       Al128   1.916   1_655  S
O123        C130   1.262       .  A
O124       Al128   1.782       .  S
O125        C126   1.256       .  A
C126       C1213   1.474       .  S
C127       C1036   1.480       .  S
C130       C1381   1.486       .  S
C131        O132   1.279       .  A
C131       C1048   1.498       .  S
O133        C148   1.264       .  A
O133       Al141   1.938   1_655  S
C134        O144   1.256       .  A
C134        O135   1.260       .  A
C134       C1372   1.484       .  S
O135       Al137   1.917       .  S
O136        C138   1.265       .  A
O136       Al137   1.878       .  S
Al137       O145   1.888   1_455  S
Al137       O147   1.885   1_455  S
Al137       O146   1.773       .  S
C138        O151   1.276       .  A
C138       C1168   1.490       .  S
O139        C149   1.263       .  A
O139       Al141   1.920       .  S
O140        C153   1.257       .  A
O140       Al150   1.867   1_655  S
Al141       O154   1.943   1_455  S
Al141       O151   1.952       .  S
Al141       O146   1.781       .  S
O142        C149   1.256       .  A
O142       Al150   1.890       .  S
O143        C152   1.269       .  A
O143       Al150   1.942   1_655  S
O144       Al150   1.907       .  S
O145        C152   1.261       .  A
O146       Al150   1.782       .  S
O147        C148   1.253       .  A
C148       C1021   1.481       .  S
C149        C997   1.480       .  S
C152       C1297   1.475       .  S
C153        O154   1.272       .  A
C153       C1012   1.494       .  S
O155        C170   1.264       .  A
O155       Al163   1.929       .  S
C156        O166   1.253       .  A
C156        O157   1.263       .  A
C156        C976   1.475       .  S
O157       Al159   1.918   1_556  S
O158        C160   1.263       .  A
O158       Al159   1.882   1_556  S
Al159       O167   1.888       .  S
Al159       O169   1.888       .  S
Al159       O168   1.772       .  S
C160        O173   1.273       .  A
C160        C985   1.485       .  S
O161        C171   1.263       .  A
O161       Al163   1.915   1_556  S
O162        C175   1.256       .  A
O162       Al172   1.858       .  S
Al163       O176   1.947       .  S
Al163       O173   1.961   1_554  S
Al163       O168   1.781       .  S
O164        C171   1.261       .  A
O164       Al172   1.907   1_556  S
O165        C174   1.269       .  A
O165       Al172   1.948       .  S
O166       Al172   1.883   1_556  S
O167        C174   1.259       .  A
O168       Al172   1.787       .  S
O169        C170   1.255       .  A
C170       C1288   1.474       .  S
C171        C949   1.485       .  S
C174       C1024   1.478       .  S
C175        O176   1.272       .  A
C175        C964   1.484       .  S
O177        C192   1.267       .  A
O177       Al185   1.948   1_565  S
C178        O188   1.256       .  A
C178        O179   1.258       .  A
C178       C1240   1.482       .  S
O179       Al181   1.909       .  S
O180        C182   1.266       .  A
O180       Al181   1.885       .  S
Al181       O189   1.882   1_545  S
Al181       O191   1.865   1_545  S
Al181       O190   1.774       .  S
C182        O195   1.275       .  A
C182       C1108   1.489       .  S
O183        C193   1.263       .  A
O183       Al185   1.922       .  S
O184        C197   1.257       .  A
O184       Al194   1.871   1_565  S
Al185       O198   1.954   1_545  S
Al185       O195   1.951       .  S
Al185       O190   1.781       .  S
O186        C193   1.258       .  A
O186       Al194   1.892       .  S
O187        C196   1.269       .  A
O187       Al194   1.941   1_565  S
O188       Al194   1.903       .  S
O189        C196   1.260       .  A
O190       Al194   1.783       .  S
O191        C192   1.250       .  A
C192        C937   1.490       .  S
C193        C913   1.495       .  S
C196       C1177   1.476       .  S
C197        O198   1.275       .  A
C197        C925   1.501       .  S
O199        C214   1.264       .  A
O199       Al207   1.931   1_455  S
C200        O210   1.255       .  A
C200        O201   1.260       .  A
C200        C901   1.480       .  S
O201       Al203   1.909   1_655  S
O202        C204   1.261       .  A
O202       Al203   1.872   1_655  S
Al203       O211   1.887       .  S
Al203       O213   1.882       .  S
Al203       O212   1.770       .  S
C204        O217   1.272       .  A
C204        C973   1.485       .  S
O205        C215   1.263       .  A
O205       Al207   1.920       .  S
O206        C219   1.256       .  A
O206       Al216   1.846   1_455  S
Al207       O220   1.942   1_655  S
Al207       O217   1.940       .  S
Al207       O212   1.785   1_655  S
O208        C215   1.258       .  A
O208       Al216   1.896       .  S
O209        C218   1.266       .  A
O209       Al216   1.938   1_455  S
O210       Al216   1.891       .  S
O211        C218   1.259       .  A
O212       Al216   1.783   1_455  S
O213        C214   1.253       .  A
C214       C1156   1.474       .  S
C215        C880   1.488       .  S
C218        C940   1.469       .  S
C219        O220   1.271       .  A
C219        C889   1.478       .  S
O221        C236   1.265       .  A
O221       Al229   1.931   1_556  S
C222        O232   1.260       .  A
C222        O223   1.260       .  A
C222       C1060   1.496       .  S
O223       Al225   1.911       .  S
O224        C226   1.264       .  A
O224       Al225   1.879       .  S
Al225       O233   1.880   1_554  S
Al225       O235   1.880   1_554  S
Al225       O234   1.766       .  S
C226        O239   1.271       .  A
C226       C1276   1.485       .  S
O227        C237   1.262       .  A
O227       Al229   1.922       .  S
O228        C241   1.260       .  A
O228       Al238   1.866   1_556  S
Al229       O242   1.950   1_554  S
Al229       O239   1.941       .  S
Al229       O234   1.778       .  S
O230        C237   1.256       .  A
O230       Al238   1.882       .  S
O231        C240   1.268       .  A
O231       Al238   1.945   1_556  S
O232       Al238   1.918       .  S
O233        C240   1.259       .  A
O234       Al238   1.781       .  S
O235        C236   1.255       .  A
C236        C868   1.474       .  S
C237        C841   1.471       .  S
C240       C1117   1.479       .  S
C241        O242   1.273       .  A
C241        C853   1.484       .  S
O243        C258   1.266       .  A
O243       Al251   1.929   1_545  S
C244        O254   1.257       .  A
C244        O245   1.260       .  A
C244        C988   1.493       .  S
O245       Al247   1.914       .  S
O246        C248   1.259       .  A
O246       Al247   1.873       .  S
Al247       O255   1.864   1_565  S
Al247       O257   1.914   1_565  S
Al247       O256   1.767       .  S
C248        O261   1.268       .  A
C248        C904   1.470       .  S
O249        C259   1.264       .  A
O249       Al251   1.906       .  S
O250        C263   1.258       .  A
O250       Al260   1.883       .  S
Al251       O264   1.926   1_565  S
Al251       O261   1.946       .  S
Al251       O256   1.780       .  S
O252        C259   1.266       .  A
O252       Al260   1.920   1_565  S
O253        C262   1.272       .  A
O253       Al260   1.955       .  S
O254       Al260   1.911   1_565  S
O255        C262   1.257       .  A
O256       Al260   1.779   1_565  S
O257        C258   1.261       .  A
C258       C1096   1.477       .  S
C259        C820   1.492       .  S
C262        C865   1.497       .  S
C263        O264   1.267       .  A
C263        C829   1.480       .  S
O265        C280   1.265       .  A
O265       Al273   1.935       .  S
C266        O276   1.257       .  A
C266        O267   1.263       .  A
C266        C769   1.491       .  S
O267       Al269   1.926       .  S
O268        C270   1.260       .  A
O268       Al269   1.876       .  S
Al269       O277   1.889       .  S
Al269       O279   1.898       .  S
Al269       O278   1.773       .  S
C270        O283   1.274       .  A
C270        C796   1.482       .  S
O271        C281   1.264       .  A
O271       Al273   1.925       .  S
O272        C285   1.260       .  A
O272       Al282   1.869       .  S
Al273       O286   1.959       .  S
Al273       O283   1.955       .  S
Al273       O278   1.783       .  S
O274        C281   1.260       .  A
O274       Al282   1.910       .  S
O275        C284   1.270       .  A
O275       Al282   1.952       .  S
O276       Al282   1.900       .  S
O277        C284   1.259       .  A
O278       Al282   1.784       .  S
O279        C280   1.255       .  A
C280        C808   1.481       .  S
C281       C1264   1.497       .  S
C284        C781   1.484       .  S
C285        O286   1.275       .  A
C285       C1333   1.500       .  S
O287        C302   1.267       .  A
O287       Al295   1.925       .  S
C288        O298   1.253       .  A
C288        O289   1.266       .  A
C288        C733   1.477       .  S
O289       Al291   1.931       .  S
O290        C292   1.258       .  A
O290       Al291   1.865       .  S
Al291       O299   1.884       .  S
Al291       O301   1.880       .  S
Al291       O300   1.770       .  S
C292        O305   1.269       .  A
C292        C745   1.494       .  S
O293        C303   1.265       .  A
O293       Al295   1.922       .  S
O294        C307   1.258       .  A
O294       Al304   1.867       .  S
Al295       O308   1.950       .  S
Al295       O305   1.946       .  S
Al295       O300   1.785       .  S
O296        C303   1.262       .  A
O296       Al304   1.906       .  S
O297        C306   1.265       .  A
O297       Al304   1.948       .  S
O298       Al304   1.888       .  S
O299        C306   1.254       .  A
O300       Al304   1.791       .  S
O301        C302   1.258       .  A
C302        C757   1.475       .  S
C303       C1129   1.488       .  S
C306        C805   1.490       .  S
C307        O308   1.272       .  A
C307       C1201   1.491       .  S
O309        C324   1.266       .  A
O309       Al317   1.938       .  S
C310        O320   1.253       .  A
C310        O311   1.253       .  A
C310        C709   1.478       .  S
O311       Al313   1.897       .  S
O312        C314   1.259       .  A
O312       Al313   1.871       .  S
Al313       O321   1.846       .  S
Al313       O323   1.894       .  S
Al313       O322   1.776       .  S
C314        O327   1.272       .  A
C314        C721   1.475       .  S
O315        C325   1.265       .  A
O315       Al317   1.907       .  S
O316        C329   1.255       .  A
O316       Al326   1.879       .  S
Al317       O330   1.936       .  S
Al317       O327   1.962       .  S
Al317       O322   1.786       .  S
O318        C325   1.266       .  A
O318       Al326   1.922       .  S
O319        C328   1.275       .  A
O319       Al326   1.963       .  S
O320       Al326   1.902       .  S
O321        C328   1.255       .  A
O322       Al326   1.786       .  S
O323        C324   1.255       .  A
C324        C784   1.477       .  S
C325       C1084   1.485       .  S
C328        C760   1.497       .  S
C329        O330   1.268       .  A
C329       C1045   1.496       .  S
O331        C346   1.264       .  A
O331       Al339   1.917       .  S
C332        O342   1.256       .  A
C332        O333   1.262       .  A
C332        C748   1.490       .  S
O333       Al335   1.912       .  S
O334        C336   1.258       .  A
O334       Al335   1.872       .  S
Al335       O343   1.861       .  S
Al335       O345   1.906       .  S
Al335       O344   1.766       .  S
C336        O349   1.270       .  A
C336        C685   1.470       .  S
O337        C347   1.264       .  A
O337       Al339   1.902       .  S
O338        C351   1.256       .  A
O338       Al348   1.867       .  S
Al339       O352   1.932       .  S
Al339       O349   1.955       .  S
Al339       O344   1.775       .  S
O340        C347   1.267       .  A
O340       Al348   1.925       .  S
O341        C350   1.274       .  A
O341       Al348   1.965       .  S
O342       Al348   1.902       .  S
O343        C350   1.255       .  A
O344       Al348   1.780       .  S
O345        C346   1.260       .  A
C346        C700   1.466       .  S
C347       C1000   1.494       .  S
C350        C673   1.502       .  S
C351        O352   1.269       .  A
C351        C892   1.478       .  S
O353        C368   1.266       .  A
O353       Al361   1.935       .  S
C354        O364   1.258       .  A
C354        O355   1.262       .  A
C354        C652   1.485       .  S
O355       Al357   1.914       .  S
O356        C358   1.263       .  A
O356       Al357   1.882       .  S
Al357       O365   1.880       .  S
Al357       O367   1.875       .  S
Al357       O366   1.771       .  S
C358        O371   1.270       .  A
C358        C712   1.484       .  S
O359        C369   1.265       .  A
O359       Al361   1.923       .  S
O360        C373   1.259       .  A
O360       Al370   1.874       .  S
Al361       O374   1.942       .  S
Al361       O371   1.937       .  S
Al361       O366   1.781       .  S
O362        C369   1.255       .  A
O362       Al370   1.886       .  S
O363        C372   1.263       .  A
O363       Al370   1.928       .  S
O364       Al370   1.902       .  S
O365        C372   1.257       .  A
O366       Al370   1.786       .  S
O367        C368   1.255       .  A
C368        C676   1.478       .  S
C369       C1192   1.484       .  S
C372        C661   1.465       .  S
C373        O374   1.273       .  A
C373       C1144   1.493       .  S
O375        C390   1.270       .  A
O375       Al383   1.952       .  S
C376        O386   1.252       .  A
C376        O377   1.253       .  A
C376        C688   1.476       .  S
O377       Al379   1.889       .  S
O378        C380   1.267       .  A
O378       Al379   1.904       .  S
Al379       O387   1.879       .  S
Al379       O389   1.859       .  S
Al379       O388   1.779       .  S
C380        O393   1.267       .  A
C380        C736   1.480       .  S
O381        C391   1.268       .  A
O381       Al383   1.926       .  S
O382        C395   1.256       .  A
O382       Al392   1.878       .  S
Al383       O396   1.927       .  S
Al383       O393   1.932       .  S
Al383       O388   1.787       .  S
O384        C391   1.261       .  A
O384       Al392   1.901       .  S
O385        C394   1.271       .  A
O385       Al392   1.945       .  S
O386       Al392   1.902       .  S
O387        C394   1.260       .  A
O388       Al392   1.786       .  S
O389        C390   1.252       .  A
C390        C637   1.481       .  S
C391       C1324   1.494       .  S
C394        C625   1.498       .  S
C395        O396   1.265       .  A
C395       C1252   1.488       .  S
O397        C412   1.264       .  A
O397       Al405   1.924       .  S
C398        O408   1.259       .  A
C398        O399   1.267       .  A
C398        C793   1.487       .  S
O399       Al401   1.922       .  S
O400        C402   1.262       .  A
O400       Al401   1.883       .  S
Al401       O409   1.895       .  S
Al401       O411   1.883       .  S
Al401       O410   1.764       .  S
C402        O415   1.271       .  A
C402        C601   1.489       .  S
O403        C413   1.263       .  A
O403       Al405   1.924       .  S
O404        C417   1.259       .  A
O404       Al414   1.862       .  S
Al405       O418   1.954       .  S
Al405       O415   1.942       .  S
Al405       O410   1.773       .  S
O406        C413   1.257       .  A
O406       Al414   1.886       .  S
O407        C416   1.263       .  A
O407       Al414   1.923       .  S
O408       Al414   1.897       .  S
O409        C416   1.258       .  A
O410       Al414   1.779       .  S
O411        C412   1.256       .  A
C412        C613   1.468       .  S
C413        C844   1.480       .  S
C416        C640   1.467       .  S
C417        O418   1.275       .  A
C417        C961   1.482       .  S
O419        C434   1.263       .  A
O419       Al427   1.930       .  S
C420        O430   1.257       .  A
C420        O421   1.262       .  A
C420        C577   1.487       .  S
O421       Al423   1.918       .  S
O422        C424   1.264       .  A
O422       Al423   1.880       .  S
Al423       O431   1.887       .  S
Al423       O433   1.879       .  S
Al423       O432   1.773       .  S
C424        O437   1.274       .  A
C424        C589   1.496       .  S
O425        C435   1.264       .  A
O425       Al427   1.923       .  S
O426        C439   1.257       .  A
O426       Al436   1.867       .  S
Al427       O440   1.947       .  S
Al427       O437   1.952       .  S
Al427       O432   1.782       .  S
O428        C435   1.258       .  A
O428       Al436   1.895       .  S
O429        C438   1.266       .  A
O429       Al436   1.936       .  S
O430       Al436   1.896       .  S
O431        C438   1.259       .  A
O432       Al436   1.786       .  S
O433        C434   1.253       .  A
C434        C628   1.473       .  S
C435        C877   1.490       .  S
C438        C616   1.477       .  S
C439        O440   1.273       .  A
C439       C1009   1.494       .  S
O441        C456   1.265       .  A
O441       Al449   1.929       .  S
C442        O452   1.257       .  A
C442        O443   1.265       .  A
C442        C553   1.491       .  S
O443       Al445   1.920       .  S
O444        C446   1.264       .  A
O444       Al445   1.886       .  S
Al445       O453   1.879       .  S
Al445       O455   1.887       .  S
Al445       O454   1.771       .  S
C446        O459   1.270       .  A
C446        C580   1.479       .  S
O447        C457   1.264       .  A
O447       Al449   1.913       .  S
O448        C461   1.259       .  A
O448       Al458   1.876       .  S
Al449       O462   1.933       .  S
Al449       O459   1.944       .  S
Al449       O454   1.777       .  S
O450        C457   1.263       .  A
O450       Al458   1.914       .  S
O451        C460   1.269       .  A
O451       Al458   1.948       .  S
O452       Al458   1.901       .  S
O453        C460   1.258       .  A
O454       Al458   1.785       .  S
O455        C456   1.256       .  A
C456        C568   1.472       .  S
C457        C952   1.494       .  S
C460        C541   1.479       .  S
C461        O462   1.270       .  A
C461        C856   1.480       .  S
O463        C478   1.263       .  A
O463       Al471   1.930       .  S
C464        O474   1.257       .  A
C464        O465   1.260       .  A
C464        C592   1.487       .  S
O465       Al467   1.913       .  S
O466        C468   1.260       .  A
O466       Al467   1.876       .  S
Al467       O475   1.871       .  S
Al467       O477   1.883       .  S
Al467       O476   1.767       .  S
C468        O481   1.277       .  A
C468        C556   1.491       .  S
O469        C479   1.262       .  A
O469       Al471   1.911       .  S
O470        C483   1.257       .  A
O470       Al480   1.868       .  S
Al471       O484   1.958       .  S
Al471       O481   1.973       .  S
Al471       O476   1.787       .  S
O472        C479   1.259       .  A
O472       Al480   1.896       .  S
O473        C482   1.272       .  A
O473       Al480   1.953       .  S
O474       Al480   1.914       .  S
O475        C482   1.260       .  A
O476       Al480   1.782       .  S
O477        C478   1.255       .  A
C478        C664   1.478       .  S
C479        C817   1.480       .  S
C482        C697   1.484       .  S
C483        O484   1.275       .  A
C483        C928   1.502       .  S
O485        C500   1.263       .  A
O485       Al493   1.930       .  S
C486        O496   1.255       .  A
C486        O487   1.261       .  A
C486        C724   1.483       .  S
O487       Al489   1.916       .  S
O488        C490   1.264       .  A
O488       Al489   1.880       .  S
Al489       O497   1.876       .  S
Al489       O499   1.887       .  S
Al489       O498   1.773       .  S
C490        O503   1.271       .  A
C490        C649   1.472       .  S
O491        C501   1.262       .  A
O491       Al493   1.912       .  S
O492        C505   1.257       .  A
O492       Al502   1.866       .  S
Al493       O506   1.939       .  S
Al493       O503   1.946       .  S
Al493       O498   1.783       .  S
O494        C501   1.259       .  A
O494       Al502   1.900       .  S
O495        C504   1.267       .  A
O495       Al502   1.939       .  S
O496       Al502   1.892       .  S
O497        C504   1.258       .  A
O498       Al502   1.786       .  S
O499        C500   1.254       .  A
C500        C544   1.473       .  S
C501        C916   1.484       .  S
C504        C529   1.470       .  S
C505        O506   1.270       .  A
C505        C832   1.481       .  S
O507        C522   1.262       .  A
O507       Al515   1.917       .  S
C508        O518   1.258       .  A
C508        O509   1.266       .  A
C508        C604   1.478       .  S
O509       Al511   1.925       .  S
O510        C512   1.260       .  A
O510       Al511   1.875       .  S
Al511       O519   1.888       .  S
Al511       O521   1.884       .  S
Al511       O520   1.769       .  S
C512        O525   1.272       .  A
C512        C772   1.482       .  S
O513        C523   1.263       .  A
O513       Al515   1.919       .  S
O514        C527   1.259       .  A
O514       Al524   1.865       .  S
Al515       O528   1.955       .  S
Al515       O525   1.959       .  S
Al515       O520   1.776       .  S
O516        C523   1.261       .  A
O516       Al524   1.908       .  S
O517        C526   1.266       .  A
O517       Al524   1.940       .  S
O518       Al524   1.887       .  S
O519        C526   1.257       .  A
O520       Al524   1.783       .  S
O521        C522   1.256       .  A
C522        C532   1.465       .  S
C523       C1033   1.483       .  S
C526        C565   1.477       .  S
C527        O528   1.275       .  A
C527       C1072   1.492       .  S
C529        C530   1.406       .  A
C529        C534   1.406       .  A
C530        C531   1.400       .  A
C530        H535   1.083       .  S
C531        C532   1.404       .  A
C531        C538   1.444       .  S
C532        C533   1.406       .  A
C533        C534   1.398       .  A
C533        H536   1.086       .  S
C534        C537   1.444       .  S
C537        N539   1.157       .  T
C538        N540   1.157       .  T
C541        C542   1.408       .  A
C541        C546   1.407       .  A
C542        C543   1.402       .  A
C542        H547   1.084       .  S
C543        C544   1.405       .  A
C543        C550   1.442       .  S
C544        C545   1.408       .  A
C545        C546   1.403       .  A
C545        H548   1.084       .  S
C546        C549   1.443       .  S
C549        N551   1.157       .  T
C550        N552   1.157       .  T
C553        C554   1.400       .  A
C553        C558   1.418       .  A
C554        C555   1.392       .  A
C554        H559   1.081       .  S
C555        C556   1.422       .  A
C555        C562   1.445       .  S
C556        C557   1.405       .  A
C557        C558   1.409       .  A
C557        H560   1.081       .  S
C558        C561   1.441       .  S
C561        N563   1.157       .  T
C562        N564   1.157       .  T
C565        C566   1.408       .  A
C565        C570   1.406       .  A
C566        C567   1.404       .  A
C566        H571   1.084       .  S
C567        C568   1.405       .  A
C567        C574   1.443       .  S
C568        C569   1.407       .  A
C569        C570   1.400       .  A
C569        H572   1.085       .  S
C570        C573   1.443       .  S
C573        N575   1.157       .  T
C574        N576   1.157       .  T
C577        C578   1.411       .  A
C577        C582   1.412       .  A
C578        C579   1.406       .  A
C578        H583   1.080       .  S
C579        C580   1.408       .  A
C579        C586   1.443       .  S
C580        C581   1.405       .  A
C581        C582   1.396       .  A
C581        H584   1.082       .  S
C582        C585   1.445       .  S
C585        N587   1.157       .  T
C586        N588   1.157       .  T
C589        C590   1.411       .  A
C589        C594   1.418       .  A
C590        C591   1.409       .  A
C590        H595   1.084       .  S
C591        C592   1.412       .  A
C591        C598   1.443       .  S
C592        C593   1.401       .  A
C593        C594   1.395       .  A
C593        H596   1.082       .  S
C594        C597   1.444       .  S
C597        N599   1.157       .  T
C598        N600   1.157       .  T
C601        C602   1.409       .  A
C601        C606   1.416       .  A
C602        C603   1.404       .  A
C602        H607   1.084       .  S
C603        C604   1.410       .  A
C603        C610   1.443       .  S
C604        C605   1.401       .  A
C605        C606   1.396       .  A
C605        H608   1.084       .  S
C606        C609   1.442       .  S
C609        N611   1.156       .  T
C610        N612   1.157       .  T
C613        C614   1.406       .  A
C613        C618   1.405       .  A
C614        C615   1.401       .  A
C614        H619   1.084       .  S
C615        C616   1.408       .  A
C615        C622   1.443       .  S
C616        C617   1.407       .  A
C617        C618   1.402       .  A
C617        H620   1.085       .  S
C618        C621   1.444       .  S
C621        N623   1.157       .  T
C622        N624   1.157       .  T
C625        C626   1.411       .  A
C625        C630   1.423       .  A
C626        C627   1.409       .  A
C626        H631   1.084       .  S
C627        C628   1.409       .  A
C627        C634   1.443       .  S
C628        C629   1.398       .  A
C629        C630   1.397       .  A
C629        H632   1.086       .  S
C630        C633   1.444       .  S
C633        N635   1.157       .  T
C634        N636   1.157       .  T
C637        C638   1.411       .  A
C637        C642   1.408       .  A
C638        C639   1.390       .  A
C638        H643   1.083       .  S
C639        C640   1.399       .  A
C639        C646   1.446       .  S
C640        C641   1.408       .  A
C641        C642   1.408       .  A
C641        H644   1.084       .  S
C642        C645   1.442       .  S
C645        N647   1.157       .  T
C646        N648   1.157       .  T
C649        C650   1.402       .  A
C649        C654   1.405       .  A
C650        C651   1.393       .  A
C650        H655   1.085       .  S
C651        C652   1.412       .  A
C651        C658   1.445       .  S
C652        C653   1.412       .  A
C653        C654   1.407       .  A
C653        H656   1.083       .  S
C654        C657   1.443       .  S
C657        N659   1.157       .  T
C658        N660   1.157       .  T
C661        C662   1.407       .  A
C661        C666   1.401       .  A
C662        C663   1.405       .  A
C662        H667   1.085       .  S
C663        C664   1.407       .  A
C663        C670   1.442       .  S
C664        C665   1.409       .  A
C665        C666   1.394       .  A
C665        H668   1.084       .  S
C666        C669   1.444       .  S
C669        N671   1.157       .  T
C670        N672   1.157       .  T
C673        C674   1.412       .  A
C673        C678   1.425       .  A
C674        C675   1.412       .  A
C674        H679   1.084       .  S
C675        C676   1.411       .  A
C675        C682   1.442       .  S
C676        C677   1.398       .  A
C677        C678   1.395       .  A
C677        H680   1.087       .  S
C678        C681   1.446       .  S
C681        N683   1.157       .  T
C682        N684   1.157       .  T
C685        C686   1.403       .  A
C685        C690   1.405       .  A
C686        C687   1.391       .  A
C686        H691   1.085       .  S
C687        C688   1.410       .  A
C687        C694   1.446       .  S
C688        C689   1.410       .  A
C689        C690   1.406       .  A
C689        H692   1.083       .  S
C690        C693   1.442       .  S
C693        N695   1.157       .  T
C694        N696   1.157       .  T
C697        C698   1.403       .  A
C697        C702   1.417       .  A
C698        C699   1.405       .  A
C698        H703   1.084       .  S
C699        C700   1.411       .  A
C699        C706   1.443       .  S
C700        C701   1.393       .  A
C701        C702   1.396       .  A
C701        H704   1.086       .  S
C702        C705   1.439       .  S
C705        N707   1.155       .  T
C706        N708   1.157       .  T
C709        C710   1.404       .  A
C709        C714   1.408       .  A
C710        C711   1.396       .  A
C710        H715   1.084       .  S
C711        C712   1.412       .  A
C711        C718   1.444       .  S
C712        C713   1.410       .  A
C713        C714   1.405       .  A
C713        H716   1.083       .  S
C714        C717   1.443       .  S
C717        N719   1.157       .  T
C718        N720   1.157       .  T
C721        C722   1.404       .  A
C721        C726   1.406       .  A
C722        C723   1.392       .  A
C722        H727   1.085       .  S
C723        C724   1.411       .  A
C723        C730   1.446       .  S
C724        C725   1.412       .  A
C725        C726   1.407       .  A
C725        H728   1.084       .  S
C726        C729   1.442       .  S
C729        N731   1.157       .  T
C730        N732   1.157       .  T
C733        C734   1.399       .  A
C733        C738   1.413       .  A
C734        C735   1.405       .  A
C734        H739   1.084       .  S
C735        C736   1.418       .  A
C735        C742   1.443       .  S
C736        C737   1.397       .  A
C737        C738   1.399       .  A
C737        H740   1.085       .  S
C738        C741   1.440       .  S
C741        N743   1.157       .  T
C742        N744   1.157       .  T
C745        C746   1.409       .  A
C745        C750   1.420       .  A
C746        C747   1.408       .  A
C746        H751   1.084       .  S
C747        C748   1.416       .  A
C747        C754   1.444       .  S
C748        C749   1.403       .  A
C749        C750   1.394       .  A
C749        H752   1.085       .  S
C750        C753   1.446       .  S
C753        N755   1.158       .  T
C754        N756   1.157       .  T
C757        C758   1.396       .  A
C757        C762   1.410       .  A
C758        C759   1.391       .  A
C758        H763   1.086       .  S
C759        C760   1.425       .  A
C759        C766   1.447       .  S
C760        C761   1.411       .  A
C761        C762   1.411       .  A
C761        H764   1.084       .  S
C762        C765   1.443       .  S
C765        N767   1.157       .  T
C766        N768   1.158       .  T
C769        C770   1.413       .  A
C769        C774   1.413       .  A
C770        C771   1.408       .  A
C770        H775   1.084       .  S
C771        C772   1.407       .  A
C771        C778   1.443       .  S
C772        C773   1.406       .  A
C773        C774   1.397       .  A
C773        H776   1.085       .  S
C774        C777   1.445       .  S
C777        N779   1.157       .  T
C778        N780   1.157       .  T
C781        C782   1.409       .  A
C781        C786   1.409       .  A
C782        C783   1.406       .  A
C782        H787   1.085       .  S
C783        C784   1.407       .  A
C783        C790   1.444       .  S
C784        C785   1.407       .  A
C785        C786   1.402       .  A
C785        H788   1.086       .  S
C786        C789   1.444       .  S
C789        N791   1.157       .  T
C790        N792   1.157       .  T
C793        C794   1.399       .  A
C793        C798   1.420       .  A
C794        C795   1.392       .  A
C794        H799   1.085       .  S
C795        C796   1.418       .  A
C795        C802   1.445       .  S
C796        C797   1.402       .  A
C797        C798   1.407       .  A
C797        H800   1.085       .  S
C798        C801   1.442       .  S
C801        N803   1.157       .  T
C802        N804   1.157       .  T
C805        C806   1.401       .  A
C805        C810   1.417       .  A
C806        C807   1.409       .  A
C806        H811   1.084       .  S
C807        C808   1.416       .  A
C807        C814   1.440       .  S
C808        C809   1.398       .  A
C809        C810   1.403       .  A
C809        H812   1.085       .  S
C810        C813   1.442       .  S
C813        N815   1.157       .  T
C814        N816   1.156       .  T
C817        C818   1.403       .  A
C817        C822   1.409       .  A
C818        C819   1.401       .  A
C818        H823   1.085       .  S
C819        C820   1.416       .  A
C819        C826   1.444       .  S
C820        C821   1.411       .  A
C821        C822   1.405       .  A
C821        H824   1.085       .  S
C822        C825   1.444       .  S
C825        N827   1.157       .  T
C826        N828   1.157       .  T
C829        C830   1.408       .  A
C829        C834   1.411       .  A
C830        C831   1.403       .  A
C830        H835   1.085       .  S
C831        C832   1.410       .  A
C831        C838   1.444       .  S
C832        C833   1.406       .  A
C833        C834   1.397       .  A
C833        H836   1.085       .  S
C834        C837   1.445       .  S
C837        N839   1.157       .  T
C838        N840   1.157       .  T
C841        C842   1.405       .  A
C841        C846   1.409       .  A
C842        C843   1.408       .  A
C842        H847   1.084       .  S
C843        C844   1.414       .  A
C843        C850   1.443       .  S
C844        C845   1.404       .  A
C845        C846   1.392       .  A
C845        H848   1.085       .  S
C846        C849   1.446       .  S
C849        N851   1.157       .  T
C850        N852   1.157       .  T
C853        C854   1.408       .  A
C853        C858   1.411       .  A
C854        C855   1.396       .  A
C854        H859   1.085       .  S
C855        C856   1.409       .  A
C855        C862   1.445       .  S
C856        C857   1.409       .  A
C857        C858   1.404       .  A
C857        H860   1.085       .  S
C858        C861   1.444       .  S
C861        N863   1.157       .  T
C862        N864   1.157       .  T
C865        C866   1.411       .  A
C865        C870   1.423       .  A
C866        C867   1.410       .  A
C866        H871   1.084       .  S
C867        C868   1.408       .  A
C867        C874   1.443       .  S
C868        C869   1.398       .  A
C869        C870   1.394       .  A
C869        H872   1.086       .  S
C870        C873   1.446       .  S
C873        N875   1.157       .  T
C874        N876   1.157       .  T
C877        C878   1.409       .  A
C877        C882   1.411       .  A
C878        C879   1.404       .  A
C878        H883   1.090       .  S
C879        C880   1.411       .  A
C879        C886   1.444       .  S
C880        C881   1.408       .  A
C881        C882   1.403       .  A
C881        H884   1.092       .  S
C882        C885   1.443       .  S
C885        N887   1.157       .  T
C886        N888   1.157       .  T
C889        C890   1.408       .  A
C889        C894   1.409       .  A
C890        C891   1.392       .  A
C890        H895   1.085       .  S
C891        C892   1.409       .  A
C891        C898   1.445       .  S
C892        C893   1.410       .  A
C893        C894   1.401       .  A
C893        H896   1.085       .  S
C894        C897   1.444       .  S
C897        N899   1.157       .  T
C898        N900   1.157       .  T
C901        C902   1.412       .  A
C901        C906   1.412       .  A
C902        C903   1.405       .  A
C902        H907   1.083       .  S
C903        C904   1.407       .  A
C903        C910   1.443       .  S
C904        C905   1.403       .  A
C905        C906   1.389       .  A
C905        H908   1.085       .  S
C906        C909   1.446       .  S
C909        N911   1.157       .  T
C910        N912   1.157       .  T
C913        C914   1.412       .  A
C913        C918   1.414       .  A
C914        C915   1.403       .  A
C914        H919   1.085       .  S
C915        C916   1.408       .  A
C915        C922   1.444       .  S
C916        C917   1.407       .  A
C917        C918   1.405       .  A
C917        H920   1.085       .  S
C918        C921   1.443       .  S
C921        N923   1.157       .  T
C922        N924   1.157       .  T
C925        C926   1.402       .  A
C925        C930   1.424       .  A
C926        C927   1.404       .  A
C926        H931   1.085       .  S
C927        C928   1.425       .  A
C927        C934   1.445       .  S
C928        C929   1.403       .  A
C929        C930   1.405       .  A
C929        H932   1.085       .  S
C930        C933   1.445       .  S
C933        N935   1.158       .  T
C934        N936   1.158       .  T
C937        C938   1.405       .  A
C937        C942   1.426       .  A
C938        C939   1.409       .  A
C938        H943   1.084       .  S
C939        C940   1.412       .  A
C939        C946   1.443       .  S
C940        C941   1.390       .  A
C941        C942   1.393       .  A
C941        H944   1.086       .  S
C942        C945   1.445       .  S
C945        N947   1.157   1_565  T
C946        N948   1.157       .  T
C949        C950   1.406       .  A
C949        C954   1.409       .  A
C950        C951   1.406       .  A
C950        H955   1.085       .  S
C951        C952   1.415       .  A
C951        C958   1.444       .  S
C952        C953   1.409       .  A
C953        C954   1.403       .  A
C953        H956   1.082       .  S
C954        C957   1.444       .  S
C957        N959   1.157       .  T
C958        N960   1.157       .  T
C961        C962   1.410       .  A
C961        C966   1.409       .  A
C962        C963   1.400       .  A
C962        H967   1.085       .  S
C963        C964   1.409       .  A
C963        C970   1.444       .  S
C964        C965   1.410       .  A
C965        C966   1.399       .  A
C965        H968   1.085       .  S
C966        C969   1.444       .  S
C969        N971   1.157       .  T
C970        N972   1.157       .  T
C973        C974   1.409       .  A
C973        C978   1.417       .  A
C974        C975   1.403       .  A
C974        H979   1.084       .  S
C975        C976   1.412       .  A
C975        C982   1.444       .  S
C976        C977   1.399       .  A
C977        C978   1.391       .  A
C977        H980   1.084       .  S
C978        C981   1.444       .  S
C981        N983   1.156       .  T
C982        N984   1.157       .  T
C985        C986   1.405       .  A
C985        C990   1.410       .  A
C986        C987   1.396       .  A
C986        H991   1.085       .  S
C987        C988   1.413       .  A
C987        C994   1.445       .  S
C988        C989   1.413       .  A
C989        C990   1.411       .  A
C989        H992   1.085       .  S
C990        C993   1.443       .  S
C993        N995   1.157       .  T
C994        N996   1.157       .  T
C997        C998   1.404       .  A
C997       C1002   1.407       .  A
C998        C999   1.403       .  A
C998       H1003   1.078       .  S
C999       C1000   1.417       .  A
C999       C1006   1.445       .  S
C1000      C1001   1.412       .  A
C1001      C1002   1.406       .  A
C1001      H1004   1.078       .  S
C1002      C1005   1.443       .  S
C1005      N1007   1.157       .  T
C1006      N1008   1.157       .  T
C1009      C1010   1.402       .  A
C1009      C1014   1.423       .  A
C1010      C1011   1.401       .  A
C1010      H1015   1.085       .  S
C1011      C1012   1.422       .  A
C1011      C1018   1.445       .  S
C1012      C1013   1.402       .  A
C1013      C1014   1.402       .  A
C1013      H1016   1.085       .  S
C1014      C1017   1.445       .  S
C1017      N1019   1.158       .  T
C1018      N1020   1.157       .  T
C1021      C1022   1.410       .  A
C1021      C1026   1.407       .  A
C1022      C1023   1.402       .  A
C1022      H1027   1.085       .  S
C1023      C1024   1.406       .  A
C1023      C1030   1.444       .  S
C1024      C1025   1.408       .  A
C1025      C1026   1.406       .  A
C1025      H1028   1.084       .  S
C1026      C1029   1.443       .  S
C1029      N1031   1.157       .  T
C1030      N1032   1.157       .  T
C1033      C1034   1.406       .  A
C1033      C1038   1.414       .  A
C1034      C1035   1.408       .  A
C1034      H1039   1.084       .  S
C1035      C1036   1.412       .  A
C1035      C1042   1.443       .  S
C1036      C1037   1.402       .  A
C1037      C1038   1.399       .  A
C1037      H1040   1.085       .  S
C1038      C1041   1.446       .  S
C1041      N1043   1.157       .  T
C1042      N1044   1.157       .  T
C1045      C1046   1.401       .  A
C1045      C1050   1.422       .  A
C1046      C1047   1.401       .  A
C1046      H1051   1.085       .  S
C1047      C1048   1.422       .  A
C1047      C1054   1.444       .  S
C1048      C1049   1.404       .  A
C1049      C1050   1.407       .  A
C1049      H1052   1.085       .  S
C1050      C1053   1.444       .  S
C1053      N1055   1.157       .  T
C1054      N1056   1.157       .  T
C1057      C1058   1.405       .  A
C1057      C1062   1.411       .  A
C1058      C1059   1.393       .  A
C1058      H1063   1.085       .  S
C1059      C1060   1.417       .  A
C1059      C1066   1.446       .  S
C1060      C1061   1.414       .  A
C1061      C1062   1.412       .  A
C1061      H1064   1.084       .  S
C1062      C1065   1.443       .  S
C1065      N1067   1.157       .  T
C1066      N1068   1.157       .  T
C1069      C1070   1.413       .  A
C1069      C1074   1.411       .  A
C1070      C1071   1.398       .  A
C1070      H1075   1.084       .  S
C1071      C1072   1.411       .  A
C1071      C1078   1.444       .  S
C1072      C1073   1.413       .  A
C1073      C1074   1.402       .  A
C1073      H1076   1.084       .  S
C1074      C1077   1.444       .  S
C1077      N1079   1.157       .  T
C1078      N1080   1.157       .  T
C1081      C1082   1.408       .  A
C1081      C1086   1.423       .  A
C1082      C1083   1.407       .  A
C1082      H1087   1.084       .  S
C1083      C1084   1.412       .  A
C1083      C1090   1.441       .  S
C1084      C1085   1.399       .  A
C1085      C1086   1.402       .  A
C1085      H1088   1.085       .  S
C1086      C1089   1.444       .  S
C1089      N1091   1.157       .  T
C1090      N1092   1.156       .  T
C1093      C1094   1.399       .  A
C1093      C1098   1.415       .  A
C1094      C1095   1.401       .  A
C1094      H1099   1.085       .  S
C1095      C1096   1.413       .  A
C1095      C1102   1.440       .  S
C1096      C1097   1.400       .  A
C1097      C1098   1.404       .  A
C1097      H1100   1.085       .  S
C1098      C1101   1.441       .  S
C1101      N1103   1.156       .  T
C1102      N1104   1.156   1_545  T
C1105      C1106   1.402       .  A
C1105      C1110   1.410       .  A
C1106      C1107   1.398       .  A
C1106      H1111   1.083       .  S
C1107      C1108   1.415       .  A
C1107      C1114   1.444       .  S
C1108      C1109   1.410       .  A
C1109      C1110   1.405       .  A
C1109      H1112   1.084       .  S
C1110      C1113   1.443       .  S
C1113      N1115   1.157       .  T
C1114      N1116   1.157       .  T
C1117      C1118   1.400       .  A
C1117      C1122   1.414       .  A
C1118      C1119   1.405       .  A
C1118      H1123   1.084       .  S
C1119      C1120   1.414       .  A
C1119      C1126   1.441       .  S
C1120      C1121   1.397       .  A
C1121      C1122   1.398       .  A
C1121      H1124   1.079       .  S
C1122      C1125   1.444       .  S
C1125      N1127   1.157       .  T
C1126      N1128   1.157   1_655  T
C1129      C1130   1.409       .  A
C1129      C1134   1.410       .  A
C1130      C1131   1.404       .  A
C1130      H1135   1.085       .  S
C1131      C1132   1.410       .  A
C1131      C1138   1.444       .  S
C1132      C1133   1.409       .  A
C1133      C1134   1.405       .  A
C1133      H1136   1.085       .  S
C1134      C1137   1.443       .  S
C1137      N1139   1.157       .  T
C1138      N1140   1.157       .  T
C1141      C1142   1.404       .  A
C1141      C1146   1.419       .  A
C1142      C1143   1.401       .  A
C1142      H1147   1.085       .  S
C1143      C1144   1.422       .  A
C1143      C1150   1.445       .  S
C1144      C1145   1.404       .  A
C1145      C1146   1.400       .  A
C1145      H1148   1.085       .  S
C1146      C1149   1.444       .  S
C1149      N1151   1.157       .  T
C1150      N1152   1.158       .  T
C1153      C1154   1.406       .  A
C1153      C1158   1.414       .  A
C1154      C1155   1.394       .  A
C1154      H1159   1.083       .  S
C1155      C1156   1.405       .  A
C1155      C1162   1.442       .  S
C1156      C1157   1.408       .  A
C1157      C1158   1.412       .  A
C1157      H1160   1.085       .  S
C1158      C1161   1.443       .  S
C1161      N1163   1.157       .  T
C1162      N1164   1.156       .  T
C1165      C1166   1.404       .  A
C1165      C1170   1.411       .  A
C1166      C1167   1.397       .  A
C1166      H1171   1.083       .  S
C1167      C1168   1.416       .  A
C1167      C1174   1.447       .  S
C1168      C1169   1.409       .  A
C1169      C1170   1.405       .  A
C1169      H1172   1.084       .  S
C1170      C1173   1.443       .  S
C1173      N1175   1.157       .  T
C1174      N1176   1.158       .  T
C1177      C1178   1.408       .  A
C1177      C1182   1.407       .  A
C1178      C1179   1.402       .  A
C1178      H1183   1.085       .  S
C1179      C1180   1.406       .  A
C1179      C1186   1.443       .  S
C1180      C1181   1.406       .  A
C1181      C1182   1.400       .  A
C1181      H1184   1.086       .  S
C1182      C1185   1.444       .  S
C1185      N1187   1.157       .  T
C1186      N1188   1.157       .  T
C1189      C1190   1.399       .  A
C1189      C1194   1.418       .  A
C1190      C1191   1.401       .  A
C1190      H1195   1.085       .  S
C1191      C1192   1.420       .  A
C1191      C1198   1.445       .  S
C1192      C1193   1.400       .  A
C1193      C1194   1.402       .  A
C1193      H1196   1.085       .  S
C1194      C1197   1.443       .  S
C1197      N1199   1.157       .  T
C1198      N1200   1.157       .  T
C1201      C1202   1.411       .  A
C1201      C1206   1.411       .  A
C1202      C1203   1.402       .  A
C1202      H1207   1.085       .  S
C1203      C1204   1.413       .  A
C1203      C1210   1.444       .  S
C1204      C1205   1.411       .  A
C1205      C1206   1.400       .  A
C1205      H1208   1.084       .  S
C1206      C1209   1.444       .  S
C1209      N1211   1.157       .  T
C1210      N1212   1.157       .  T
C1213      C1214   1.398       .  A
C1213      C1218   1.415       .  A
C1214      C1215   1.401       .  A
C1214      H1219   1.085       .  S
C1215      C1216   1.416       .  A
C1215      C1222   1.443       .  S
C1216      C1217   1.399       .  A
C1217      C1218   1.403       .  A
C1217      H1220   1.085       .  S
C1218      C1221   1.439       .  S
C1221      N1223   1.156   1_455  T
C1222      N1224   1.157       .  T
C1225      C1226   1.405       .  A
C1225      C1230   1.404       .  A
C1226      C1227   1.395       .  A
C1226      H1231   1.085       .  S
C1227      C1228   1.411       .  A
C1227      C1234   1.445       .  S
C1228      C1229   1.411       .  A
C1229      C1230   1.405       .  A
C1229      H1232   1.083       .  S
C1230      C1233   1.442       .  S
C1233      N1235   1.157       .  T
C1234      N1236   1.157       .  T
C1237      C1238   1.403       .  A
C1237      C1242   1.407       .  A
C1238      C1239   1.395       .  A
C1238      H1243   1.085       .  S
C1239      C1240   1.412       .  A
C1239      C1246   1.445       .  S
C1240      C1241   1.410       .  A
C1241      C1242   1.405       .  A
C1241      H1244   1.084       .  S
C1242      C1245   1.443       .  S
C1245      N1247   1.157       .  T
C1246      N1248   1.157       .  T
C1249      C1250   1.408       .  A
C1249      C1254   1.410       .  A
C1250      C1251   1.402       .  A
C1250      H1255   1.085       .  S
C1251      C1252   1.412       .  A
C1251      C1258   1.444       .  S
C1252      C1253   1.409       .  A
C1253      C1254   1.402       .  A
C1253      H1256   1.085       .  S
C1254      C1257   1.444       .  S
C1257      N1259   1.157       .  T
C1258      N1260   1.157       .  T
C1261      C1262   1.409       .  A
C1261      C1266   1.413       .  A
C1262      C1263   1.408       .  A
C1262      H1267   1.085       .  S
C1263      C1264   1.413       .  A
C1263      C1270   1.443       .  S
C1264      C1265   1.410       .  A
C1265      C1266   1.409       .  A
C1265      H1268   1.085       .  S
C1266      C1269   1.444       .  S
C1269      N1271   1.157       .  T
C1270      N1272   1.157       .  T
C1273      C1274   1.409       .  A
C1273      C1278   1.417       .  A
C1274      C1275   1.404       .  A
C1274      H1279   1.085       .  S
C1275      C1276   1.413       .  A
C1275      C1282   1.444       .  S
C1276      C1277   1.405       .  A
C1277      C1278   1.394       .  A
C1277      H1280   1.085       .  S
C1278      C1281   1.445       .  S
C1281      N1283   1.157       .  T
C1282      N1284   1.157       .  T
C1285      C1286   1.408       .  A
C1285      C1290   1.409       .  A
C1286      C1287   1.404       .  A
C1286      H1291   1.082       .  S
C1287      C1288   1.405       .  A
C1287      C1294   1.443       .  S
C1288      C1289   1.407       .  A
C1289      C1290   1.403       .  A
C1289      H1292   1.086       .  S
C1290      C1293   1.444       .  S
C1293      N1295   1.157       .  T
C1294      N1296   1.157       .  T
C1297      C1298   1.406       .  A
C1297      C1302   1.407       .  A
C1298      C1299   1.403       .  A
C1298      H1303   1.085       .  S
C1299      C1300   1.407       .  A
C1299      C1306   1.443       .  S
C1300      C1301   1.407       .  A
C1301      C1302   1.401       .  A
C1301      H1304   1.085       .  S
C1302      C1305   1.444       .  S
C1305      N1307   1.157       .  T
C1306      N1308   1.157       .  T
C1309      C1310   1.404       .  A
C1309      C1314   1.410       .  A
C1310      C1311   1.394       .  A
C1310      H1315   1.085       .  S
C1311      C1312   1.418       .  A
C1311      C1318   1.446       .  S
C1312      C1313   1.413       .  A
C1313      C1314   1.409       .  A
C1313      H1316   1.084       .  S
C1314      C1317   1.443       .  S
C1317      N1319   1.157       .  T
C1318      N1320   1.157       .  T
C1321      C1322   1.401       .  A
C1321      C1326   1.419       .  A
C1322      C1323   1.402       .  A
C1322      H1327   1.085       .  S
C1323      C1324   1.420       .  A
C1323      C1330   1.444       .  S
C1324      C1325   1.404       .  A
C1325      C1326   1.406       .  A
C1325      H1328   1.085       .  S
C1326      C1329   1.444       .  S
C1329      N1331   1.157       .  T
C1330      N1332   1.157       .  T
C1333      C1334   1.412       .  A
C1333      C1338   1.413       .  A
C1334      C1335   1.402       .  A
C1334      H1339   1.085       .  S
C1335      C1336   1.413       .  A
C1335      C1342   1.444       .  S
C1336      C1337   1.413       .  A
C1337      C1338   1.407       .  A
C1337      H1340   1.084       .  S
C1338      C1341   1.444       .  S
C1341      N1343   1.157       .  T
C1342      N1344   1.157       .  T
C1345      C1346   1.404       .  A
C1345      C1350   1.406       .  A
C1346      C1347   1.394       .  A
C1346      H1351   1.086       .  S
C1347      C1348   1.412       .  A
C1347      C1354   1.445       .  S
C1348      C1349   1.411       .  A
C1349      C1350   1.405       .  A
C1349      H1352   1.083       .  S
C1350      C1353   1.443       .  S
C1353      N1355   1.157       .  T
C1354      N1356   1.157       .  T
C1357      C1358   1.412       .  A
C1357      C1362   1.421       .  A
C1358      C1359   1.409       .  A
C1358      H1363   1.084       .  S
C1359      C1360   1.408       .  A
C1359      C1366   1.443       .  S
C1360      C1361   1.399       .  A
C1361      C1362   1.390       .  A
C1361      H1364   1.086       .  S
C1362      C1365   1.447       .  S
C1365      N1367   1.158       .  T
C1366      N1368   1.157       .  T
C1369      C1370   1.404       .  A
C1369      C1374   1.407       .  A
C1370      C1371   1.395       .  A
C1370      H1375   1.084       .  S
C1371      C1372   1.410       .  A
C1371      C1378   1.445       .  S
C1372      C1373   1.412       .  A
C1373      C1374   1.409       .  A
C1373      H1376   1.083       .  S
C1374      C1377   1.442       .  S
C1377      N1379   1.157       .  T
C1378      N1380   1.157       .  T
C1381      C1382   1.408       .  A
C1381      C1386   1.414       .  A
C1382      C1383   1.403       .  A
C1382      H1387   1.085       .  S
C1383      C1384   1.406       .  A
C1383      C1390   1.444       .  S
C1384      C1385   1.405       .  A
C1385      C1386   1.403       .  A
C1385      H1388   1.085       .  S
C1386      C1389   1.444       .  S
C1389      N1391   1.157       .  T
C1390      N1392   1.157       .  T
