geometry optimzed in LAMMPS
_audit_creation_date              2020-12-01 
_audit_creation_method            'lammps2cif' 
_symmetry_space_group_name_H-M    'P1' 
_symmetry_Int_Tables_number       1 
_symmetry_cell_setting            triclinic 
loop_ 
_symmetry_equiv_pos_as_xyz 
  x,y,z 
_cell_length_a                    117.4668495 
_cell_length_b                    117.42610913081185 
_cell_length_c                    86.97239962416535 
_cell_angle_alpha                 90.09383065797233 
_cell_angle_beta                  90.01249999736686 
_cell_angle_gamma                 89.79115172133871 
loop_ 
_atom_site_label 
_atom_site_type_symbol 
_atom_site_fract_x 
_atom_site_fract_y 
_atom_site_fract_z 
_atom_site_charge 
N1          N  0.53905474  0.23840432  0.89997076    -0.26100
N2          N  0.53647084  0.23614262  0.91442689    -0.34000
C3          C  0.52516422  0.23663607  0.91628699     0.02200
C4          C  0.52023853  0.23930401  0.90235148     0.08300
C5          C  0.52927947  0.24032147  0.89214126    -0.04800
H6          H  0.52084533  0.23546420  0.92715434     0.08900
H7          H  0.52881568  0.24273397  0.88015735     0.10100
Cu8        Cu  0.54817787  0.23365248  0.93168904     0.44200
Cu9        Cu  0.55607210  0.23932503  0.89290867     0.42000
Cu10       Cu  0.57754161  0.23636827  0.92489662     0.43900
N11         N  0.55993375  0.23372455  0.94920540    -0.33500
N12         N  0.57097213  0.23500811  0.94705831    -0.27700
C13         C  0.57617675  0.23519275  0.96090596    -0.03800
C14         C  0.56792723  0.23383408  0.97221088     0.08400
C15         C  0.55776221  0.23300148  0.96428618     0.02200
H16         H  0.58525557  0.23608221  0.96259630     0.09800
H17         H  0.54932420  0.23214267  0.96912867     0.08900
N18         N  0.58127392  0.23787905  0.90154170    -0.34900
N19         N  0.57380820  0.23905929  0.89021453    -0.27100
C20         C  0.57953529  0.24020805  0.87686970    -0.02300
C21         C  0.59112539  0.23978260  0.87990925     0.06300
C22         C  0.59184585  0.23822901  0.89566352     0.04400
H23         H  0.57553369  0.24160947  0.86582794     0.09500
H24         H  0.59951805  0.23747643  0.90246947     0.08300
N25         N  0.66635572  0.22891505  0.78999483    -0.26100
N26         N  0.67565042  0.23499087  0.78768911    -0.34000
C27         C  0.68282333  0.22917131  0.77861038     0.02200
C28         C  0.67785978  0.21892869  0.77480423     0.08300
C29         C  0.66735495  0.21901072  0.78213738    -0.04800
H30         H  0.69114105  0.23214972  0.77513483     0.08900
H31         H  0.66110693  0.21226280  0.78215910     0.10100
Cu32       Cu  0.67881185  0.25068326  0.79738768     0.44200
Cu33       Cu  0.65350572  0.23464552  0.80481753     0.42000
Cu34       Cu  0.65991329  0.26232066  0.82470976     0.43900
N35         N  0.68234617  0.26543921  0.80928091    -0.33500
N36         N  0.67546272  0.26996186  0.81962773    -0.27700
C37         C  0.68053466  0.27922669  0.82575872    -0.03800
C38         C  0.69117693  0.28043103  0.81897144     0.08400
C39         C  0.69193621  0.27156024  0.80853713     0.02200
H40         H  0.67690268  0.28447100  0.83475581     0.09800
H41         H  0.69899211  0.26962893  0.80096477     0.08900
N42         N  0.64537874  0.25243837  0.82803424    -0.34900
N43         N  0.64306056  0.24264151  0.82114501    -0.27100
C44         C  0.63327800  0.23850647  0.82698181    -0.02300
C45         C  0.62925185  0.24598906  0.83811567     0.06300
C46         C  0.63714252  0.25474135  0.83831907     0.04400
H47         H  0.62965453  0.23037809  0.82381986     0.09500
H48         H  0.63705243  0.26221793  0.84559039     0.08300
N49         N  0.53984450  0.23747988  0.11225859    -0.26100
N50         N  0.53676495  0.23630844  0.09771137    -0.34000
C51         C  0.52548708  0.23471408  0.09695699     0.02200
C52         C  0.52111288  0.23492109  0.11168356     0.08300
C53         C  0.53043708  0.23679930  0.12116763    -0.04800
H54         H  0.52078655  0.23348481  0.08638330     0.08900
H55         H  0.53042632  0.23730931  0.13358848     0.10100
Cu56       Cu  0.54764746  0.23659027  0.07905750     0.44200
Cu57       Cu  0.55693657  0.23921754  0.11873002     0.42000
Cu58       Cu  0.57690951  0.23950607  0.08541040     0.43900
N59         N  0.55929557  0.23655746  0.06127485    -0.33500
N60         N  0.57033242  0.23781882  0.06343421    -0.27700
C61         C  0.57566739  0.23730332  0.04971549    -0.03800
C62         C  0.56751865  0.23548747  0.03842702     0.08400
C63         C  0.55725434  0.23511685  0.04623019     0.02200
H64         H  0.58478139  0.23789758  0.04814453     0.09800
H65         H  0.54887620  0.23392584  0.04133195     0.08900
N66         N  0.58160959  0.24037839  0.10835162    -0.34900
N67         N  0.57471204  0.24027053  0.12039489    -0.27100
C68         C  0.58106969  0.24112807  0.13328474    -0.02300
C69         C  0.59245629  0.24190594  0.12908739     0.06300
C70         C  0.59239582  0.24130878  0.11321633     0.04400
H71         H  0.57762619  0.24145546  0.14481186     0.09500
H72         H  0.59968944  0.24149196  0.10563469     0.08300
N73         N  0.67264428  0.22665286  0.20906576    -0.26100
N74         N  0.68228404  0.23229922  0.21047857    -0.34000
C75         C  0.68938900  0.22654594  0.21966665     0.02200
C76         C  0.68407796  0.21669032  0.22441285     0.08300
C77         C  0.67336939  0.21704939  0.21757206    -0.04800
H78         H  0.69775000  0.22951655  0.22297115     0.08900
H79         H  0.66666957  0.21080084  0.21861802     0.10100
Cu80       Cu  0.68555073  0.24773839  0.20045591     0.44200
Cu81       Cu  0.65951378  0.23299815  0.19525558     0.42000
Cu82       Cu  0.66508416  0.26164603  0.17739249     0.43900
N83         N  0.68844105  0.26327587  0.19050066    -0.33500
N84         N  0.68091827  0.26877073  0.18200495    -0.27700
C85         C  0.68548362  0.27876659  0.17754069    -0.03800
C86         C  0.69644895  0.27942023  0.18347363     0.08400
C87         C  0.69794891  0.26946191  0.19165956     0.02200
H88         H  0.68120238  0.28500185  0.17042940     0.09800
H89         H  0.70534198  0.26696010  0.19828076     0.08900
N90         N  0.65049660  0.25185972  0.17427744    -0.34900
N91         N  0.64853760  0.24172028  0.18037325    -0.27100
C92         C  0.63842577  0.23791672  0.17521708    -0.02300
C93         C  0.63374592  0.24600929  0.16543826     0.06300
C94         C  0.64167377  0.25473165  0.16521743     0.04400
H95         H  0.63491876  0.22968856  0.17808512     0.09500
H96         H  0.64112888  0.26266371  0.15896601     0.08300
N97         N  0.73410341  0.05279454  0.60749932    -0.26100
N98         N  0.73479348  0.05020744  0.59274309    -0.34000
C99         C  0.73701534  0.03906993  0.59114337     0.02200
C100        C  0.73773585  0.03421759  0.60556616     0.08300
C101        C  0.73573531  0.04316198  0.61575456    -0.04800
H102        H  0.73786736  0.03476456  0.58019223     0.08900
H103        H  0.73568772  0.04273543  0.62817863     0.10100
Cu104      Cu  0.73240416  0.06165076  0.57513101     0.44200
Cu105      Cu  0.73145788  0.06970898  0.61457705     0.42000
Cu106      Cu  0.72778780  0.09103668  0.58277099     0.43900
N107        N  0.72932977  0.07335993  0.55804345    -0.33500
N108        N  0.72784663  0.08437357  0.56046029    -0.27700
C109        C  0.72593144  0.08949866  0.54679348    -0.03800
C110        C  0.72605862  0.08118807  0.53540330     0.08400
C111        C  0.72825307  0.07111266  0.54300531     0.02200
H112        H  0.72418395  0.09848413  0.54532234     0.09800
H113        H  0.72894387  0.06270376  0.53797141     0.08900
N114        N  0.72787985  0.09482762  0.60630238    -0.34900
N115        N  0.72945713  0.08737624  0.61756250    -0.27100
C116        C  0.72957776  0.09303641  0.63107827    -0.02300
C117        C  0.72781830  0.10452423  0.62825217     0.06300
C118        C  0.72676527  0.10531281  0.61243864     0.04400
H119        H  0.73082388  0.08906858  0.64217346     0.09500
H120        H  0.72559485  0.11302047  0.60581474     0.08300
N121        N  0.71272901  0.18275258  0.71384687    -0.26100
N122        N  0.71996543  0.19065194  0.71841349    -0.34000
C123        C  0.71526974  0.19682542  0.72973635     0.02200
C124        C  0.70446449  0.19274340  0.73252609     0.08300
C125        C  0.70304695  0.18383860  0.72214637    -0.04800
H126        H  0.71940107  0.20389674  0.73542452     0.08900
H127        H  0.69567666  0.17840291  0.72100088     0.10100
Cu128      Cu  0.73577783  0.19322090  0.70888647     0.44200
Cu129      Cu  0.71745235  0.17073361  0.69717159     0.42000
Cu130      Cu  0.74743392  0.17376395  0.68226079     0.43900
N131        N  0.75072946  0.19637319  0.69736293    -0.33500
N132        N  0.75540032  0.18920199  0.68748965    -0.27700
C133        C  0.76488747  0.19403403  0.68166232    -0.03800
C134        C  0.76605822  0.20482162  0.68810936     0.08400
C135        C  0.75692856  0.20592412  0.69802905     0.02200
H136        H  0.77029761  0.19016250  0.67303460     0.09800
H137        H  0.75488741  0.21317558  0.70522288     0.08900
N138        N  0.73653507  0.16004332  0.67791691    -0.34900
N139        N  0.72579439  0.15921735  0.68249823    -0.27100
C140        C  0.72131240  0.14959490  0.67659391    -0.02300
C141        C  0.72962740  0.14401362  0.66812656     0.06300
C142        C  0.73914195  0.15088014  0.66926004     0.04400
H143        H  0.71264826  0.14681439  0.67844081     0.09500
H144        H  0.74729340  0.14949199  0.66376480     0.08300
N145        N  0.71959967  0.05172073  0.39586653    -0.26100
N146        N  0.71844938  0.04913035  0.41057007    -0.34000
C147        C  0.71751258  0.03783714  0.41212952     0.02200
C148        C  0.71815806  0.03284937  0.39779081     0.08300
C149        C  0.71957896  0.04190662  0.38764448    -0.04800
H150        H  0.71681010  0.03351390  0.42306667     0.08900
H151        H  0.72053163  0.04139326  0.37528996     0.10100
Cu152      Cu  0.71911804  0.06048410  0.42860207     0.44200
Cu153      Cu  0.72128719  0.06878055  0.38882151     0.42000
Cu154      Cu  0.72332256  0.08939898  0.42194327     0.43900
N155        N  0.72077399  0.07196659  0.44637172    -0.33500
N156        N  0.72239978  0.08293717  0.44412875    -0.27700
C157        C  0.72312894  0.08818094  0.45790722    -0.03800
C158        C  0.72181902  0.08003590  0.46935807     0.08400
C159        C  0.72042746  0.06985774  0.46150812     0.02200
H160        H  0.72432895  0.09723908  0.45943851     0.09800
H161        H  0.71939339  0.06146163  0.46639243     0.08900
N162        N  0.72391684  0.09364936  0.39874925    -0.34900
N163        N  0.72315235  0.08656881  0.38690946    -0.27100
C164        C  0.72402475  0.09268592  0.37382319    -0.02300
C165        C  0.72548253  0.10410492  0.37760756     0.06300
C166        C  0.72530141  0.10430630  0.39351588     0.04400
H167        H  0.72387961  0.08903139  0.36240283     0.09500
H168        H  0.72601269  0.11169583  0.40088338     0.08300
N169        N  0.71419900  0.18194684  0.29128693    -0.26100
N170        N  0.71967302  0.19174699  0.29074950    -0.34000
C171        C  0.71510874  0.19835374  0.27982145     0.02200
C172        C  0.70624892  0.19253938  0.27305029     0.08300
C173        C  0.70582303  0.18213751  0.28061740    -0.04800
H174        H  0.71831144  0.20664841  0.27661739     0.08900
H175        H  0.70026481  0.17506248  0.27802501     0.10100
Cu176      Cu  0.73393239  0.19554031  0.30336863     0.44200
Cu177      Cu  0.71964843  0.16887368  0.30593371     0.42000
Cu178      Cu  0.74781983  0.17419266  0.32493056     0.43900
N179        N  0.74931160  0.19816949  0.31395548    -0.33500
N180        N  0.75489766  0.19022521  0.32160833    -0.27700
C181        C  0.76492646  0.19456034  0.32635515    -0.03800
C182        C  0.76551142  0.20581003  0.32150842     0.08400
C183        C  0.75547432  0.20773664  0.31365708     0.02200
H184        H  0.77124767  0.18991937  0.33290326     0.09800
H185        H  0.75295018  0.21544317  0.30774100     0.08900
N186        N  0.73764807  0.15989504  0.32823067    -0.34900
N187        N  0.72759357  0.15802751  0.32182137    -0.33500
C188        C  0.72328654  0.14831320  0.32762957    -0.02300
C189        C  0.73094920  0.14382632  0.33821358     0.06300
C190        C  0.73996525  0.15142488  0.33813706     0.04400
H191        H  0.71498046  0.14500617  0.32472000     0.09500
H192        H  0.74768983  0.15094691  0.34486112     0.08300
N193        N  0.77357392  0.46504877  0.89608893    -0.26100
N194        N  0.77683526  0.46772966  0.91017129    -0.34000
C195        C  0.77873185  0.47893379  0.91102431     0.02200
C196        C  0.77664067  0.48373247  0.89681270     0.08300
C197        C  0.77326416  0.47467092  0.88755750    -0.04800
H198        H  0.78122666  0.48331111  0.92144267     0.08900
H199        H  0.77088737  0.47502028  0.87554871     0.10100
Cu200      Cu  0.77858721  0.45653599  0.92822648     0.44200
Cu201      Cu  0.77016763  0.44815941  0.89005541     0.42000
Cu202      Cu  0.77510724  0.42733667  0.92228851     0.43900
N203        N  0.78010239  0.44501891  0.94595097    -0.33500
N204        N  0.77861705  0.43397946  0.94403245    -0.27700
C205        C  0.77964435  0.42879439  0.95780504    -0.03800
C206        C  0.78201994  0.43703644  0.96884243     0.08400
C207        C  0.78221670  0.44720378  0.96083064     0.02200
H208        H  0.77871386  0.41973662  0.95964589     0.09800
H209        H  0.78343458  0.45564471  0.96554543     0.08900
N210        N  0.77145667  0.42313939  0.89947947    -0.34900
N211        N  0.76924963  0.43041660  0.88820535    -0.27100
C212        C  0.76717720  0.42448428  0.87522629    -0.02300
C213        C  0.76831222  0.41299078  0.87841277     0.06300
C214        C  0.77102895  0.41247164  0.89385883     0.04400
H215        H  0.76540219  0.42827803  0.86414905     0.09500
H216        H  0.77260453  0.40487072  0.90055568     0.08300
N217        N  0.77913991  0.33635703  0.79032421    -0.26100
N218        N  0.77210280  0.32807427  0.78647919    -0.34000
C219        C  0.77650758  0.32217819  0.77468560     0.02200
C220        C  0.78687675  0.32689298  0.77086769     0.08300
C221        C  0.78836586  0.33583995  0.78109502    -0.04800
H222        H  0.77248511  0.31488923  0.76936785     0.08900
H223        H  0.79545937  0.34168329  0.78154620     0.10100
Cu224      Cu  0.75686909  0.32482980  0.79733520     0.44200
Cu225      Cu  0.77497315  0.34816589  0.80731381     0.42000
Cu226      Cu  0.74590570  0.34463185  0.82417059     0.43900
N227        N  0.74216106  0.32195651  0.80961591    -0.33500
N228        N  0.73778833  0.32927185  0.81954070    -0.27700
C229        C  0.72829015  0.32471092  0.82569789    -0.03800
C230        C  0.72676491  0.31393711  0.81939073     0.08400
C231        C  0.73571029  0.31257625  0.80919944     0.02200
H232        H  0.72306275  0.32881124  0.83433804     0.09800
H233        H  0.73738591  0.30531463  0.80185770     0.08900
N234        N  0.75675444  0.35831960  0.82817606    -0.34900
N235        N  0.76726160  0.35934718  0.82280841    -0.27100
C236        C  0.77193751  0.36883633  0.82876645    -0.02300
C237        C  0.76396637  0.37408591  0.83813770     0.06300
C238        C  0.75446240  0.36720432  0.83745661     0.04400
H239        H  0.78050254  0.37171228  0.82641346     0.09500
H240        H  0.74657558  0.36835131  0.84370138     0.08300
N241        N  0.77116714  0.46540601  0.10697862    -0.26100
N242        N  0.77466832  0.46805708  0.09300120    -0.34000
C243        C  0.77578217  0.47936378  0.09186915     0.02200
C244        C  0.77296921  0.48429954  0.10580140     0.08300
C245        C  0.76993398  0.47517003  0.11515925    -0.04800
H246        H  0.77847990  0.48369230  0.08152689     0.08900
H247        H  0.76736712  0.47557148  0.12709393     0.10100
Cu248      Cu  0.77823312  0.45658193  0.07563820     0.44200
Cu249      Cu  0.76916017  0.44827066  0.11339712     0.42000
Cu250      Cu  0.77521294  0.42723104  0.08158279     0.43900
N251        N  0.78069198  0.44492269  0.05815700    -0.33500
N252        N  0.77914476  0.43388731  0.06000600    -0.27700
C253        C  0.78030302  0.42868984  0.04624059    -0.03800
C254        C  0.78282047  0.43690792  0.03526342     0.08400
C255        C  0.78300803  0.44707711  0.04332720     0.02200
H256        H  0.77921522  0.41965378  0.04432882     0.09800
H257        H  0.78412141  0.45552232  0.03861685     0.08900
N258        N  0.77219532  0.42313678  0.10458620    -0.34900
N259        N  0.76971992  0.43043939  0.11576755    -0.27100
C260        C  0.76827284  0.42455248  0.12893145    -0.02300
C261        C  0.77008534  0.41308181  0.12596485     0.06300
C262        C  0.77255572  0.41253456  0.11043862     0.04400
H263        H  0.76631080  0.42837300  0.13994938     0.09500
H264        H  0.77438513  0.40494197  0.10380712     0.08300
N265        N  0.78257689  0.33811942  0.21663079    -0.26100
N266        N  0.77603649  0.32933075  0.21998149    -0.34000
C267        C  0.78023605  0.32393121  0.23229416     0.02200
C268        C  0.78995120  0.32948451  0.23706729     0.08300
C269        C  0.79130426  0.33841508  0.22677175    -0.04800
H270        H  0.77646692  0.31644451  0.23741530     0.08900
H271        H  0.79791589  0.34480572  0.22691172     0.10100
Cu272      Cu  0.76136289  0.32497919  0.20844859     0.44200
Cu273      Cu  0.77820315  0.34949695  0.19907430     0.42000
Cu274      Cu  0.74915109  0.34511295  0.18299953     0.43900
N275        N  0.74617730  0.32218655  0.19724324    -0.33500
N276        N  0.74131233  0.32972594  0.18808744    -0.27700
C277        C  0.73157975  0.32527861  0.18250109    -0.03800
C278        C  0.73041303  0.31436380  0.18834787     0.08400
C279        C  0.73980469  0.31274435  0.19768522     0.02200
H280        H  0.72603183  0.32948424  0.17434409     0.09800
H281        H  0.74191362  0.30520783  0.20425682     0.08900
N282        N  0.75973863  0.35874935  0.17777404    -0.34900
N283        N  0.77029084  0.36007335  0.18285791    -0.27100
C284        C  0.77476989  0.36940494  0.17621412    -0.02300
C285        C  0.76662493  0.37424867  0.16669498     0.06300
C286        C  0.75721916  0.36727354  0.16801332     0.04400
H287        H  0.78329650  0.37250733  0.17828439     0.09500
H288        H  0.74921407  0.36814199  0.16196333     0.08300
N289        N  0.82519556  0.29186607  0.71293242    -0.26100
N290        N  0.81544459  0.28632419  0.71352032    -0.34000
C291        C  0.80791769  0.29227058  0.72182031     0.02200
C292        C  0.81306369  0.30211349  0.72684904     0.08300
C293        C  0.82411158  0.30159612  0.72114784    -0.04800
H294        H  0.79930857  0.28952424  0.72417273     0.08900
H295        H  0.83074266  0.30787805  0.72260974     0.10100
Cu296      Cu  0.81224007  0.27095503  0.70330865     0.44200
Cu297      Cu  0.83875443  0.28546276  0.69999678     0.42000
Cu298      Cu  0.83233096  0.25715179  0.68070134     0.43900
N299        N  0.80879263  0.25568589  0.69295013    -0.33500
N300        N  0.81625664  0.25013356  0.68444237    -0.27700
C301        C  0.81142017  0.24037943  0.67946271    -0.03800
C302        C  0.80032784  0.23992244  0.68511637     0.08400
C303        C  0.79907257  0.24978921  0.69366317     0.02200
H304        H  0.81561923  0.23416513  0.67220932     0.09800
H305        H  0.79172642  0.25240603  0.70029960     0.08900
N306        N  0.84690769  0.26705818  0.67756149    -0.34900
N307        N  0.84924173  0.27691649  0.68431486    -0.27100
C308        C  0.85907902  0.28094681  0.67854202    -0.02300
C309        C  0.86309863  0.27336184  0.66757834     0.06300
C310        C  0.85517291  0.26466329  0.66735147     0.04400
H311        H  0.86274738  0.28907849  0.68160246     0.09500
H312        H  0.85526930  0.25718334  0.66007970     0.08300
N313        N  0.95447475  0.28500458  0.60878891    -0.26100
N314        N  0.95687245  0.28641318  0.59407945    -0.34000
C315        C  0.96791234  0.28888604  0.59244045     0.02200
C316        C  0.97295496  0.28909363  0.60677218     0.08300
C317        C  0.96418203  0.28647201  0.61696590    -0.04800
H318        H  0.97203672  0.29014648  0.58145636     0.08900
H319        H  0.96478517  0.28582160  0.62934534     0.10100
Cu320      Cu  0.94556857  0.28451555  0.57626240     0.44200
Cu321      Cu  0.93767265  0.28157285  0.61578744     0.42000
Cu322      Cu  0.91674417  0.28034863  0.58257571     0.43900
N323        N  0.93446261  0.28163837  0.55846555    -0.33500
N324        N  0.92345419  0.28010783  0.56046659    -0.27700
C325        C  0.91858712  0.27816706  0.54664417    -0.03800
C326        C  0.92708440  0.27839167  0.53551535     0.08400
C327        C  0.93699000  0.28068378  0.54351134     0.02200
H328        H  0.90964077  0.27643219  0.54489208     0.09800
H329        H  0.94546324  0.28163094  0.53882400     0.08900
N330        N  0.91268035  0.27992240  0.60586156    -0.34900
N331        N  0.91985511  0.27992187  0.61762630    -0.27100
C332        C  0.91376788  0.27899418  0.63072940    -0.02300
C333        C  0.90223189  0.27842717  0.62708459     0.06300
C334        C  0.90198744  0.27914291  0.61118234     0.04400
H335        H  0.91754163  0.27857303  0.64205066     0.09500
H336        H  0.89458361  0.27920767  0.60381320     0.08300
N337        N  0.82557804  0.29233853  0.29484872    -0.26100
N338        N  0.81556236  0.28730066  0.29387448    -0.34000
C339        C  0.80834038  0.29396820  0.28606050     0.02200
C340        C  0.81396542  0.30377136  0.28179067     0.08300
C341        C  0.82496811  0.30242929  0.28742176    -0.04800
H342        H  0.79963990  0.29169814  0.28339302     0.08900
H343        H  0.83193840  0.30837406  0.28636634     0.10100
Cu344      Cu  0.81174484  0.27152167  0.30270876     0.44200
Cu345      Cu  0.83909299  0.28488221  0.30689871     0.42000
Cu346      Cu  0.83306912  0.25573195  0.32166546     0.43900
N347        N  0.80880848  0.25563490  0.31179667    -0.33500
N348        N  0.81675684  0.24950360  0.31863187    -0.27700
C349        C  0.81216073  0.23962994  0.32340990    -0.03800
C350        C  0.80072110  0.23966065  0.31944721     0.08400
C351        C  0.79894505  0.24993377  0.31204958     0.02200
H352        H  0.81673598  0.23307111  0.32960098     0.09800
H353        H  0.79108557  0.25302221  0.30705704     0.08900
N354        N  0.84771174  0.26496209  0.32610562    -0.34900
N355        N  0.84994623  0.27534845  0.32104404    -0.27100
C356        C  0.85979650  0.27886283  0.32740097    -0.02300
C357        C  0.86388815  0.27033408  0.33697675     0.06300
C358        C  0.85600804  0.26165841  0.33575827     0.04400
H359        H  0.86342018  0.28722576  0.32573176     0.09500
H360        H  0.85612526  0.25357625  0.34170267     0.08300
N361        N  0.95530923  0.27671580  0.39559743    -0.26100
N362        N  0.95810813  0.27828669  0.41015779    -0.34000
C363        C  0.96931904  0.28011908  0.41124083     0.02200
C364        C  0.97397443  0.27971000  0.39668869     0.08300
C365        C  0.96486277  0.27743256  0.38695275    -0.04800
H366        H  0.97377037  0.28173254  0.42191447     0.08900
H367        H  0.96510296  0.27673323  0.37455201     0.10100
Cu368      Cu  0.94684596  0.27817316  0.42827528     0.44200
Cu369      Cu  0.93825416  0.27442480  0.38927334     0.42000
Cu370      Cu  0.91760820  0.27345127  0.42236127     0.43900
N371        N  0.93541859  0.27708580  0.44613562    -0.33500
N372        N  0.92444280  0.27521758  0.44422240    -0.27700
C373        C  0.91943656  0.27456499  0.45814742    -0.03800
C374        C  0.92777154  0.27600617  0.46929755     0.08400
C375        C  0.93775765  0.27765098  0.46119168     0.02200
H376        H  0.91049736  0.27285693  0.45999985     0.09800
H377        H  0.94616445  0.27910052  0.46586831     0.08900
N378        N  0.91333237  0.27276013  0.39920598    -0.34900
N379        N  0.92050079  0.27308668  0.38745616    -0.27100
C380        C  0.91444871  0.27263916  0.37430376    -0.02300
C381        C  0.90294521  0.27199991  0.37790293     0.06300
C382        C  0.90263572  0.27212807  0.39382151     0.04400
H383        H  0.91820984  0.27266311  0.36295939     0.09500
H384        H  0.89516912  0.27204721  0.40108680     0.08300
N385        N  0.77491917  0.67745665  0.78424405    -0.26100
N386        N  0.76676474  0.68364378  0.77792747    -0.34000
C387        C  0.77129551  0.69125724  0.76832107     0.02200
C388        C  0.78297587  0.69006473  0.76855132     0.08300
C389        C  0.78503381  0.68109453  0.77867229    -0.04800
H390        H  0.76640125  0.69764706  0.76225764     0.08900
H391        H  0.79325194  0.67797527  0.78242885     0.10100
Cu392      Cu  0.75007725  0.68383232  0.78472747     0.44200
Cu393      Cu  0.77095121  0.66546847  0.80129568     0.42000
Cu394      Cu  0.74114001  0.66992594  0.81729856     0.43900
N395        N  0.73489242  0.68779803  0.79506514    -0.33500
N396        N  0.73134595  0.68282528  0.80772993    -0.27700
C397        C  0.72157912  0.68788005  0.81231210    -0.03800
C398        C  0.71893160  0.69650328  0.80189787     0.08400
C399        C  0.72768215  0.69616904  0.79123238     0.02200
H400        H  0.71687497  0.68551569  0.82249503     0.09800
H401        H  0.72908910  0.70194096  0.78175644     0.08900
N402        N  0.75230723  0.65681938  0.82290814    -0.34900
N403        N  0.76271323  0.65505129  0.81746368    -0.27100
C404        C  0.76695399  0.64552880  0.82402912    -0.02300
C405        C  0.75887750  0.64117143  0.83407678     0.06300
C406        C  0.74973269  0.64855291  0.83293395     0.04400
H407        H  0.77539571  0.64217626  0.82188100     0.09500
H408        H  0.74166476  0.64795285  0.83885701     0.08300
N409        N  0.77126349  0.55104424  0.89483806    -0.26100
N410        N  0.77402610  0.54874555  0.90922654    -0.34000
C411        C  0.77611249  0.53758923  0.91067443     0.02200
C412        C  0.77467612  0.53244097  0.89652442     0.08300
C413        C  0.77147965  0.54122145  0.88668738    -0.04800
H414        H  0.77838525  0.53349482  0.92138514     0.08900
H415        H  0.76967244  0.54055817  0.87452174     0.10100
Cu416      Cu  0.77456490  0.56047617  0.92679305     0.44200
Cu417      Cu  0.76774559  0.56776780  0.88797206     0.42000
Cu418      Cu  0.76741825  0.58914294  0.92020337     0.43900
N419        N  0.77277819  0.57206220  0.94438797    -0.33500
N420        N  0.77004391  0.58285032  0.94223059    -0.27700
C421        C  0.76856468  0.58787695  0.95605310    -0.03800
C422        C  0.77033466  0.57972869  0.96735091     0.08400
C423        C  0.77303714  0.56984991  0.95949087     0.02200
H424        H  0.76580347  0.59659157  0.95772289     0.09800
H425        H  0.77467777  0.56153325  0.96437134     0.08900
N426        N  0.76521714  0.59280643  0.89700318    -0.34900
N427        N  0.76534914  0.58536403  0.88553262    -0.27100
C428        C  0.76395719  0.59104724  0.87220574    -0.02300
C429        C  0.76286656  0.60258323  0.87541553     0.06300
C430        C  0.76371772  0.60331804  0.89126151     0.04400
H431        H  0.76372251  0.58703300  0.86101086     0.09500
H432        H  0.76359233  0.61098029  0.89817719     0.08300
N433        N  0.77909755  0.67887981  0.21712808    -0.26100
N434        N  0.77321260  0.68841358  0.21887944    -0.34000
C435        C  0.77874408  0.69543443  0.22839678     0.02200
C436        C  0.78866575  0.69021357  0.23310699     0.08300
C437        C  0.78862995  0.67962273  0.22585286    -0.04800
H438        H  0.77567978  0.70377923  0.23174999     0.08900
H439        H  0.79514065  0.67310430  0.22658500     0.10100
Cu440      Cu  0.75781488  0.69209222  0.20886684     0.44200
Cu441      Cu  0.77340255  0.66598973  0.20209518     0.42000
Cu442      Cu  0.74465182  0.67241478  0.18502256     0.43900
N443        N  0.74226397  0.69535089  0.19902415    -0.33500
N444        N  0.73703964  0.68795958  0.19008309    -0.27700
C445        C  0.72717486  0.69259883  0.18516558    -0.03800
C446        C  0.72627125  0.70350146  0.19129744     0.08400
C447        C  0.73598885  0.70487090  0.20009981     0.02200
H448        H  0.72128424  0.68846747  0.17741390     0.09800
H449        H  0.73833930  0.71222064  0.20689241     0.08900
N450        N  0.75472703  0.65832818  0.17984675    -0.34900
N451        N  0.76492706  0.65594163  0.18553747    -0.27100
C452        C  0.76887271  0.64643442  0.17853050    -0.02300
C453        C  0.76081755  0.64270843  0.16791330     0.06300
C454        C  0.75197774  0.65047524  0.16924808     0.04400
H455        H  0.77716285  0.64272791  0.18067684     0.09500
H456        H  0.74404804  0.65050486  0.16293940     0.08300
N457        N  0.76790441  0.55186351  0.10684483    -0.26100
N458        N  0.76999286  0.54912895  0.09237448    -0.34000
C459        C  0.77181178  0.53788811  0.09126945     0.02200
C460        C  0.77081321  0.53311625  0.10570770     0.08300
C461        C  0.76822937  0.54222711  0.11538416    -0.04800
H462        H  0.77366390  0.53346960  0.08062755     0.08900
H463        H  0.76696838  0.54190824  0.12769698     0.10100
Cu464      Cu  0.77007009  0.56051186  0.07436536     0.44200
Cu465      Cu  0.76531609  0.56896899  0.11319601     0.42000
Cu466      Cu  0.76453406  0.58987905  0.08051610     0.43900
N467        N  0.76866624  0.57203736  0.05662551    -0.33500
N468        N  0.76660304  0.58300499  0.05856995    -0.27700
C469        C  0.76589992  0.58799907  0.04462323    -0.03800
C470        C  0.76746968  0.57966281  0.03346253     0.08400
C471        C  0.76924650  0.56969767  0.04155972     0.02200
H472        H  0.76407225  0.59692641  0.04275065     0.09800
H473        H  0.77080842  0.56130195  0.03685201     0.08900
N474        N  0.76348414  0.59407353  0.10381598    -0.34900
N475        N  0.76384355  0.58677124  0.11541625    -0.27100
C476        C  0.76337142  0.59268856  0.12871185    -0.02300
C477        C  0.76265436  0.60424591  0.12540357     0.06300
C478        C  0.76273986  0.60472759  0.10947155     0.04400
H479        H  0.76348432  0.58881365  0.13998155     0.09500
H480        H  0.76260584  0.61230184  0.10241683     0.08300
N481        N  0.82459566  0.73003816  0.72029021    -0.26100
N482        N  0.82059816  0.73804374  0.72951083    -0.34000
C483        C  0.81358708  0.73337832  0.73986352     0.02200
C484        C  0.81287327  0.72177753  0.73707755     0.08300
C485        C  0.82008658  0.71996164  0.72456470    -0.04800
H486        H  0.80920576  0.73825434  0.74859683     0.08900
H487        H  0.82163370  0.71201083  0.71862489     0.10100
Cu488      Cu  0.82285700  0.75525409  0.72625698     0.44200
Cu489      Cu  0.83570715  0.73393491  0.70222523     0.42000
Cu490      Cu  0.83644015  0.76478765  0.69260269     0.43900
N491        N  0.82022446  0.77132023  0.71748089    -0.33500
N492        N  0.82479302  0.77490312  0.70450798    -0.27700
C493        C  0.81968406  0.78475519  0.70039842    -0.03800
C494        C  0.81140940  0.78734682  0.71129010     0.08400
C495        C  0.81212602  0.77867032  0.72198336     0.02200
H496        H  0.82124950  0.78920307  0.68972523     0.09800
H497        H  0.80663816  0.77735925  0.73180670     0.08900
N498        N  0.84754785  0.75250479  0.68381488    -0.34900
N499        N  0.84716494  0.74144814  0.68681964    -0.27100
C500        C  0.85571745  0.73621885  0.67919048    -0.02300
C501        C  0.86183929  0.74437044  0.67120390     0.06300
C502        C  0.85640169  0.75456505  0.67442923     0.04400
H503        H  0.85757717  0.72720028  0.67982546     0.09500
H504        H  0.85872489  0.76291637  0.67026100     0.08300
N505        N  0.95386539  0.74435579  0.61345277    -0.26100
N506        N  0.95658541  0.74607817  0.59890519    -0.34000
C507        C  0.96793463  0.74577852  0.59731844     0.02200
C508        C  0.97275157  0.74386060  0.61154463     0.08300
C509        C  0.96359180  0.74297446  0.62160194    -0.04800
H510        H  0.97235340  0.74631436  0.58642884     0.08900
H511        H  0.96395542  0.74082269  0.63368290     0.10100
Cu512      Cu  0.94494534  0.74697899  0.58126008     0.44200
Cu513      Cu  0.93672763  0.74275064  0.62002501     0.42000
Cu514      Cu  0.91613365  0.73917875  0.58720007     0.43900
N515        N  0.93355421  0.74498722  0.56348654    -0.33500
N516        N  0.92288775  0.74175283  0.56526616    -0.27700
C517        C  0.91803013  0.74082490  0.55123765    -0.03800
C518        C  0.92608960  0.74370782  0.54018357     0.08400
C519        C  0.93580865  0.74621592  0.54848574     0.02200
H520        H  0.90928092  0.73837713  0.54926248     0.09800
H521        H  0.94407116  0.74849080  0.54396912     0.08900
N522        N  0.91183629  0.73917667  0.61053084    -0.34900
N523        N  0.91898710  0.74085808  0.62211711    -0.27100
C524        C  0.91295395  0.74134452  0.63529749    -0.02300
C525        C  0.90151424  0.73979339  0.63192401     0.06300
C526        C  0.90117473  0.73841239  0.61611991     0.04400
H527        H  0.91663259  0.74282025  0.64652759     0.09500
H528        H  0.89364396  0.73745194  0.60907712     0.08300
N529        N  0.82360374  0.72323101  0.29748122    -0.26100
N530        N  0.81466540  0.72980784  0.29480918    -0.34000
C531        C  0.80807306  0.72500389  0.28406163     0.02200
C532        C  0.81297293  0.71483913  0.27956859     0.08300
C533        C  0.82281147  0.71388494  0.28840426    -0.04800
H534        H  0.80044264  0.72887574  0.27940669     0.08900
H535        H  0.82920097  0.70724800  0.28764782     0.10100
Cu536      Cu  0.81205409  0.74570594  0.30413834     0.44200
Cu537      Cu  0.83672150  0.72861692  0.31225939     0.42000
Cu538      Cu  0.83342918  0.75900376  0.32556537     0.43900
N539        N  0.81038318  0.76211616  0.31213480    -0.33500
N540        N  0.81837216  0.76742408  0.31999526    -0.27700
C541        C  0.81456377  0.77793980  0.32371946    -0.03800
C542        C  0.80357797  0.77915689  0.31798844     0.08400
C543        C  0.80131198  0.76896326  0.31063048     0.02200
H544        H  0.81925846  0.78405221  0.33051964     0.09800
H545        H  0.79358726  0.76663465  0.30463962     0.08900
N546        N  0.84689041  0.74814990  0.33106224    -0.34900
N547        N  0.84818477  0.73741978  0.32659377    -0.27100
C548        C  0.85779152  0.73324576  0.33305165    -0.02300
C549        C  0.86269552  0.74169452  0.34206697     0.06300
C550        C  0.85553165  0.75098914  0.34041881     0.04400
H551        H  0.86079406  0.72458508  0.33165913     0.09500
H552        H  0.85646979  0.75927352  0.34571230     0.08300
N553        N  0.95483495  0.73975248  0.40018822    -0.26100
N554        N  0.95766887  0.74042553  0.41486837    -0.34000
C555        C  0.96895854  0.73929896  0.41632516     0.02200
C556        C  0.97361766  0.73789355  0.40190395     0.08300
C557        C  0.96444286  0.73828716  0.39182692    -0.04800
H558        H  0.97343154  0.73913707  0.42720191     0.08900
H559        H  0.96467631  0.73700730  0.37950935     0.10100
Cu560      Cu  0.94640710  0.74168589  0.43287653     0.44200
Cu561      Cu  0.93772832  0.73964043  0.39338121     0.42000
Cu562      Cu  0.91723655  0.73789360  0.42654387     0.43900
N563        N  0.93492150  0.74132649  0.45068926    -0.33500
N564        N  0.92394223  0.73952271  0.44868365    -0.27700
C565        C  0.91879539  0.73959079  0.46256833    -0.03800
C566        C  0.92700326  0.74167941  0.47373918     0.08400
C567        C  0.93710480  0.74268827  0.46571218     0.02200
H568        H  0.90974865  0.73852142  0.46436209     0.09800
H569        H  0.94548175  0.74421901  0.47044475     0.08900
N570        N  0.91281691  0.73824854  0.40324877    -0.34900
N571        N  0.91994639  0.73890631  0.39146559    -0.27100
C572        C  0.91383788  0.73931963  0.37832866    -0.02300
C573        C  0.90234399  0.73901074  0.38198644     0.06300
C574        C  0.90208165  0.73829971  0.39787836     0.04400
H575        H  0.91750320  0.74013109  0.36697519     0.09500
H576        H  0.89459889  0.73789207  0.40509899     0.08300
N577        N  0.72062445  0.84317327  0.72569805    -0.26100
N578        N  0.72780994  0.83685316  0.73374735    -0.34000
C579        C  0.72196944  0.83039689  0.74370992     0.02200
C580        C  0.71051129  0.83258867  0.74183831     0.08300
C581        C  0.70991210  0.84068487  0.73023329    -0.04800
H582        H  0.72574623  0.82398563  0.75105356     0.08900
H583        H  0.70227132  0.84425096  0.72519679     0.10100
Cu584      Cu  0.74496045  0.83522381  0.72894612     0.44200
Cu585      Cu  0.72616101  0.85430169  0.70836193     0.42000
Cu586      Cu  0.75613153  0.85027526  0.69682377     0.43900
N587        N  0.76046315  0.83124355  0.71904379    -0.33500
N588        N  0.76463244  0.83660090  0.70696971    -0.27700
C589        C  0.77421996  0.83122543  0.70239667    -0.03800
C590        C  0.77608971  0.82196534  0.71201070     0.08400
C591        C  0.76719188  0.82233340  0.72245971     0.02200
H592        H  0.77914520  0.83357192  0.69239170     0.09800
H593        H  0.76554032  0.81641271  0.73169794     0.08900
N594        N  0.74548088  0.86304290  0.68827885    -0.34900
N595        N  0.73464750  0.86442786  0.69210580    -0.27100
C596        C  0.73038257  0.87332669  0.68412704    -0.02300
C597        C  0.73894022  0.87782451  0.67495545     0.06300
C598        C  0.74836559  0.87104805  0.67793826     0.04400
H599        H  0.72172658  0.87642044  0.68513032     0.09500
H600        H  0.75671188  0.87176502  0.67277677     0.08300
N601        N  0.73942845  0.96658813  0.60844280    -0.26100
N602        N  0.73955211  0.96896730  0.59360536    -0.34000
C603        C  0.74016210  0.98027403  0.59167920     0.02200
C604        C  0.74038994  0.98543191  0.60596969     0.08300
C605        C  0.73981207  0.97648848  0.61641897    -0.04800
H606        H  0.74033844  0.98446233  0.58060696     0.08900
H607        H  0.73991772  0.97712188  0.62882868     0.10100
Cu608      Cu  0.73874264  0.95687725  0.57640416     0.44200
Cu609      Cu  0.73909828  0.94962349  0.61599919     0.42000
Cu610      Cu  0.73601456  0.92738304  0.58497161     0.43900
N611        N  0.73750362  0.94452128  0.55960755    -0.33500
N612        N  0.73637492  0.93352274  0.56232298    -0.27700
C613        C  0.73577231  0.92799402  0.54867538    -0.03800
C614        C  0.73669282  0.93597877  0.53690567     0.08400
C615        C  0.73768693  0.94632259  0.54440520     0.02200
H616        H  0.73491500  0.91887084  0.54742083     0.09800
H617        H  0.73833682  0.95465442  0.53919845     0.08900
N618        N  0.73671433  0.92417503  0.60872233    -0.34900
N619        N  0.73828286  0.93195100  0.61960871    -0.27100
C620        C  0.73889134  0.92665955  0.63334880    -0.02300
C621        C  0.73743319  0.91507638  0.63109573     0.06300
C622        C  0.73605690  0.91383245  0.61537217     0.04400
H623        H  0.74013553  0.93095508  0.64423303     0.09500
H624        H  0.73489329  0.90592757  0.60916873     0.08300
N625        N  0.71576304  0.83664778  0.29249014    -0.26100
N626        N  0.72256299  0.82819495  0.28837334    -0.34000
C627        C  0.71707029  0.82138651  0.27849293     0.02200
C628        C  0.70627260  0.82573912  0.27613023     0.08300
C629        C  0.70569856  0.83547652  0.28514666    -0.04800
H630        H  0.72053563  0.81356355  0.27381562     0.08900
H631        H  0.69835168  0.84091161  0.28689166     0.10100
Cu632      Cu  0.73865695  0.82557249  0.29726105     0.44200
Cu633      Cu  0.72078200  0.84842755  0.30902194     0.42000
Cu634      Cu  0.75069786  0.84537587  0.32357559     0.43900
N635        N  0.75438117  0.82319902  0.30738667    -0.33500
N636        N  0.75913954  0.83048864  0.31699596    -0.27700
C637        C  0.76907088  0.82601990  0.32205845    -0.03800
C638        C  0.77046009  0.81535713  0.31538011     0.08400
C639        C  0.76100115  0.81392307  0.30614045     0.02200
H640        H  0.77453302  0.82994467  0.33055013     0.09800
H641        H  0.75890807  0.80650931  0.29931281     0.08900
N642        N  0.73932912  0.85836078  0.32955796    -0.34900
N643        N  0.72858301  0.85909335  0.32497612    -0.27100
C644        C  0.72366117  0.86814518  0.33180721    -0.02300
C645        C  0.73169556  0.87346688  0.34088747     0.06300
C646        C  0.74152578  0.86707676  0.33917508     0.04400
H647        H  0.71492608  0.87079205  0.33003883     0.09500
H648        H  0.74963364  0.86853931  0.34472810     0.08300
N649        N  0.72597109  0.96561418  0.39848715    -0.26100
N650        N  0.72555070  0.96843762  0.41320641    -0.34000
C651        C  0.72389105  0.97970582  0.41448146     0.02200
C652        C  0.72328716  0.98434464  0.39991829     0.08300
C653        C  0.72471536  0.97517386  0.38997789    -0.04800
H654        H  0.72302329  0.98420002  0.42529087     0.08900
H655        H  0.72437553  0.97537186  0.37754957     0.10100
Cu656      Cu  0.72680427  0.95711745  0.43137530     0.44200
Cu657      Cu  0.72712822  0.94856858  0.39141906     0.42000
Cu658      Cu  0.72606633  0.92774021  0.42392205     0.43900
N659        N  0.72821898  0.94509646  0.44867986    -0.33500
N660        N  0.72778276  0.93402552  0.44613022    -0.27700
C661        C  0.72930742  0.92847842  0.45956760    -0.03800
C662        C  0.73090409  0.93652327  0.47107771     0.08400
C663        C  0.73009386  0.94694083  0.46369444     0.02200
H664        H  0.72967389  0.91931401  0.46075704     0.09800
H665        H  0.73093428  0.95528990  0.46884591     0.08900
N666        N  0.72587645  0.92355701  0.40070190    -0.34900
N667        N  0.72672528  0.93078594  0.38906943    -0.27100
C668        C  0.72720047  0.92476486  0.37585895    -0.02300
C669        C  0.72648389  0.91326964  0.37937033     0.06300
C670        C  0.72563374  0.91286542  0.39518994     0.04400
H671        H  0.72803535  0.92847823  0.36454003     0.09500
H672        H  0.72532297  0.90530645  0.40227055     0.08300
N673        N  0.54146448  0.78375603  0.89689414    -0.26100
N674        N  0.53911589  0.78681955  0.91118016    -0.34000
C675        C  0.52786551  0.78830916  0.91272370     0.02200
C676        C  0.52265405  0.78614060  0.89878378     0.08300
C677        C  0.53155276  0.78315275  0.88894898    -0.04800
H678        H  0.52374539  0.79069714  0.92338457     0.08900
H679        H  0.53089045  0.78094517  0.87690104     0.10100
Cu680      Cu  0.55091200  0.78875478  0.92859120     0.44200
Cu681      Cu  0.55842509  0.78107715  0.88985640     0.42000
Cu682      Cu  0.57998590  0.78415674  0.92164870     0.43900
N683        N  0.56289144  0.78935789  0.94595271    -0.33500
N684        N  0.57382285  0.78735945  0.94368570    -0.27700
C685        C  0.57929813  0.78798957  0.95731450    -0.03800
C686        C  0.57136664  0.79066672  0.96862925     0.08400
C687        C  0.56107502  0.79140482  0.96093075     0.02200
H688        H  0.58835894  0.78674752  0.95882845     0.09800
H689        H  0.55279195  0.79307914  0.96590130     0.08900
N690        N  0.58373344  0.78150096  0.89848615    -0.34900
N691        N  0.57624753  0.78008031  0.88722433    -0.27100
C692        C  0.58200450  0.77844993  0.87395806    -0.02300
C693        C  0.59359231  0.77903208  0.87697935     0.06300
C694        C  0.59432057  0.78098095  0.89262643     0.04400
H695        H  0.57804325  0.77724711  0.86284432     0.09500
H696        H  0.60202303  0.78190370  0.89933337     0.08300
N697        N  0.67012582  0.79150848  0.78879461    -0.26100
N698        N  0.67668939  0.78416615  0.78135695    -0.34000
C699        C  0.68303076  0.78978396  0.77099317     0.02200
C700        C  0.68048285  0.80125799  0.77200485     0.08300
C701        C  0.67233134  0.80207688  0.78351265    -0.04800
H702        H  0.68952576  0.78588435  0.76388025     0.08900
H703        H  0.66845145  0.80979801  0.78789337     0.10100
Cu704      Cu  0.67807937  0.76710495  0.78715046     0.44200
Cu705      Cu  0.65857356  0.78642995  0.80580991     0.42000
Cu706      Cu  0.66011655  0.75627973  0.81709713     0.43900
N707        N  0.68010624  0.75108493  0.79676184    -0.33500
N708        N  0.67372523  0.74708512  0.80802028    -0.27700
C709        C  0.67759608  0.73667074  0.81199743    -0.03800
C710        C  0.68681601  0.73397580  0.80267932     0.08400
C711        C  0.68814763  0.74336312  0.79323131     0.02200
H712        H  0.67388020  0.73141578  0.82086852     0.09800
H713        H  0.69465769  0.74462528  0.78460800     0.08900
N714        N  0.64729795  0.76745359  0.82402741    -0.34900
N715        N  0.64691973  0.77841305  0.82047586    -0.27100
C716        C  0.63780566  0.78315777  0.82744469    -0.02300
C717        C  0.63210697  0.77477541  0.83558625     0.06300
C718        C  0.63837115  0.76494090  0.83310509     0.04400
H719        H  0.63545877  0.79205301  0.82658691     0.09500
H720        H  0.63675284  0.75661625  0.83793396     0.08300
N721        N  0.66829996  0.79076807  0.21763774    -0.26100
N722        N  0.67612143  0.78337976  0.22211602    -0.34000
C723        C  0.68235629  0.78790474  0.23342418     0.02200
C724        C  0.67834316  0.79873287  0.23653084     0.08300
C725        C  0.66944654  0.80036164  0.22614581    -0.04800
H726        H  0.68951505  0.78364083  0.23876017     0.08900
H727        H  0.66413354  0.80785765  0.22500664     0.10100
Cu728      Cu  0.67868781  0.76753447  0.21273705     0.44200
Cu729      Cu  0.65664944  0.78644609  0.20030143     0.42000
Cu730      Cu  0.66052105  0.75666535  0.18461610     0.43900
N731        N  0.68210953  0.75256868  0.20141723    -0.33500
N732        N  0.67535656  0.74821533  0.19083503    -0.27700
C733        C  0.68032880  0.73879712  0.18494085    -0.03800
C734        C  0.69078789  0.73735466  0.19212759     0.08400
C735        C  0.69155731  0.74621281  0.20253593     0.02200
H736        H  0.67683498  0.73369694  0.17571797     0.09800
H737        H  0.69856911  0.74803462  0.21021748     0.08900
N738        N  0.64737117  0.76780292  0.17907716    -0.34900
N739        N  0.64612066  0.77841779  0.18405010    -0.27100
C740        C  0.63692603  0.78301449  0.17710773    -0.02300
C741        C  0.63213768  0.77490500  0.16747137     0.06300
C742        C  0.63899679  0.76540009  0.16906987     0.04400
H743        H  0.63389470  0.79160891  0.17904105     0.09500
H744        H  0.63818071  0.75738024  0.16303715     0.08300
N745        N  0.54186907  0.78200089  0.10585499    -0.26100
N746        N  0.53919989  0.78566219  0.09193518    -0.34000
C747        C  0.52788794  0.78707191  0.09095436     0.02200
C748        C  0.52304485  0.78413403  0.10485382     0.08300
C749        C  0.53215617  0.78087421  0.11408650    -0.04800
H750        H  0.52348133  0.79009494  0.08081496     0.08900
H751        H  0.53178249  0.77825927  0.12599788     0.10100
Cu752      Cu  0.55077538  0.78878313  0.07450390     0.44200
Cu753      Cu  0.55891232  0.77964486  0.11248884     0.42000
Cu754      Cu  0.58021216  0.78538297  0.08153517     0.43900
N755        N  0.56290155  0.79056563  0.05741124    -0.33500
N756        N  0.57389414  0.78896401  0.05975065    -0.27700
C757        C  0.57940573  0.78979441  0.04619350    -0.03800
C758        C  0.57145077  0.79216570  0.03481800     0.08400
C759        C  0.56109978  0.79258749  0.04241847     0.02200
H760        H  0.58848186  0.78863775  0.04471907     0.09800
H761        H  0.55277836  0.79375310  0.03730696     0.08900
N762        N  0.58412107  0.78194340  0.10438582    -0.34900
N763        N  0.57668183  0.77950444  0.11535452    -0.27100
C764        C  0.58243432  0.77756535  0.12852776    -0.02300
C765        C  0.59395148  0.77902409  0.12573603     0.06300
C766        C  0.59468468  0.78180804  0.11035484     0.04400
H767        H  0.57850579  0.77554228  0.13943246     0.09500
H768        H  0.60236286  0.78354983  0.10391765     0.08300
N769        N  0.23858031  0.54991860  0.89723732    -0.26100
N770        N  0.23991658  0.54804846  0.91209918    -0.34000
C771        C  0.24203920  0.53699025  0.91450556     0.02200
C772        C  0.24207978  0.53140302  0.90052862     0.08300
C773        C  0.23974213  0.53986448  0.88974025    -0.04800
H774        H  0.24321894  0.53324791  0.92575679     0.08900
H775        H  0.23908294  0.53881494  0.87741244     0.10100
Cu776      Cu  0.23848119  0.56020081  0.92899747     0.44200
Cu777      Cu  0.23549866  0.56648661  0.88905228     0.42000
Cu778      Cu  0.23171838  0.58854446  0.92045839     0.43900
N779        N  0.23638268  0.57226788  0.94588271    -0.33500
N780        N  0.23373297  0.58299211  0.94311909    -0.27700
C781        C  0.23299478  0.58858438  0.95668846    -0.03800
C782        C  0.23541624  0.58091605  0.96845972     0.08400
C783        C  0.23742067  0.57067247  0.96105660     0.02200
H784        H  0.23104142  0.59755199  0.95787003     0.09800
H785        H  0.23934994  0.56254580  0.96630283     0.08900
N786        N  0.23132804  0.59165460  0.89677902    -0.34900
N787        N  0.23300899  0.58407316  0.88566289    -0.27100
C788        C  0.23302898  0.58957832  0.87203808    -0.02300
C789        C  0.23110699  0.60108093  0.87468060     0.06300
C790        C  0.23005852  0.60203280  0.89046102     0.04400
H791        H  0.23440285  0.58551317  0.86101701     0.09500
H792        H  0.22889944  0.60981262  0.89696562     0.08300
N793        N  0.21687214  0.67960325  0.78931608    -0.26100
N794        N  0.22409922  0.68783695  0.78601583    -0.34000
C795        C  0.21965511  0.69459443  0.77519450     0.02200
C796        C  0.20904696  0.69054242  0.77123529     0.08300
C797        C  0.20744850  0.68102724  0.78053449    -0.04800
H798        H  0.22387550  0.70202256  0.77059425     0.08900
H799        H  0.20014740  0.67543662  0.78062373     0.10100
Cu800      Cu  0.23974698  0.69011436  0.79602630     0.44200
Cu801      Cu  0.22129823  0.66697489  0.80534939     0.42000
Cu802      Cu  0.25081498  0.67068637  0.82228792     0.43900
N803        N  0.25483789  0.69301469  0.80723910    -0.33500
N804        N  0.25930662  0.68578364  0.81715530    -0.27700
C805        C  0.26892457  0.69036652  0.82297307    -0.03800
C806        C  0.27037904  0.70105815  0.81644037     0.08400
C807        C  0.26129722  0.70237814  0.80650172     0.02200
H808        H  0.27419062  0.68643438  0.83169797     0.09800
H809        H  0.25941269  0.70970067  0.79938921     0.08900
N810        N  0.23998041  0.65688169  0.82598257    -0.34900
N811        N  0.22946730  0.65571203  0.82061242    -0.27100
C812        C  0.22507064  0.64597721  0.82626295    -0.02300
C813        C  0.23322039  0.64071200  0.83535493     0.06300
C814        C  0.24252948  0.64786065  0.83488475     0.04400
H815        H  0.21658552  0.64290316  0.82383155     0.09500
H816        H  0.25050364  0.64674203  0.84093587     0.08300
N817        N  0.22768337  0.55309830  0.10754165    -0.26100
N818        N  0.22840652  0.55029003  0.09284552    -0.34000
C819        C  0.22733280  0.53899134  0.09131228     0.02200
C820        C  0.22589681  0.53425576  0.10569003     0.08300
C821        C  0.22626714  0.54344562  0.11581845    -0.04800
H822        H  0.22763557  0.53451876  0.08043038     0.08900
H823        H  0.22530791  0.54315653  0.12818282     0.10100
Cu824      Cu  0.23052942  0.56157194  0.07495503     0.44200
Cu825      Cu  0.22810993  0.57025743  0.11458598     0.42000
Cu826      Cu  0.22882754  0.59100571  0.08182166     0.43900
N827        N  0.23140029  0.57333054  0.05743435    -0.33500
N828        N  0.23042389  0.58441033  0.05966075    -0.27700
C829        C  0.23112955  0.58972303  0.04593256    -0.03800
C830        C  0.23277241  0.58150851  0.03462895     0.08400
C831        C  0.23285966  0.57124462  0.04240075     0.02200
H832        H  0.23078706  0.59885487  0.04435078     0.09800
H833        H  0.23385347  0.56283223  0.03746901     0.08900
N834        N  0.22845768  0.59534101  0.10509511    -0.34900
N835        N  0.22824194  0.58813533  0.11681101    -0.27100
C836        C  0.22837611  0.59420522  0.13001660    -0.02300
C837        C  0.22877527  0.60574335  0.12647753     0.06300
C838        C  0.22877549  0.60605718  0.11055506     0.04400
H839        H  0.22850317  0.59046602  0.14137407     0.09500
H840        H  0.22899400  0.61355432  0.10335564     0.08300
N841        N  0.21346940  0.68282377  0.21414674    -0.26100
N842        N  0.22002641  0.69168860  0.21710997    -0.34000
C843        C  0.21417650  0.69938657  0.22533798     0.02200
C844        C  0.20335268  0.69528868  0.22791458     0.08300
C845        C  0.20317589  0.68467122  0.22075022    -0.04800
H846        H  0.21757077  0.70747704  0.22911492     0.08900
H847        H  0.19600860  0.67893796  0.21995577     0.10100
Cu848      Cu  0.23659226  0.69362490  0.20970090     0.44200
Cu849      Cu  0.21936331  0.66941070  0.20010277     0.42000
Cu850      Cu  0.24926817  0.67397107  0.18492803     0.43900
N851        N  0.25276322  0.69605007  0.20105721    -0.33500
N852        N  0.25772323  0.68884531  0.19151892    -0.27700
C853        C  0.26792165  0.69315452  0.18734093    -0.03800
C854        C  0.26936524  0.70364986  0.19460415     0.08400
C855        C  0.25955759  0.70505706  0.20329295     0.02200
H856        H  0.27367430  0.68911576  0.17928025     0.09800
H857        H  0.25743097  0.71213174  0.21074193     0.08900
N858        N  0.23858784  0.66029508  0.17953563    -0.34900
N859        N  0.22810750  0.65858420  0.18470530    -0.27100
C860        C  0.22394188  0.64910338  0.17795522    -0.02300
C861        C  0.23211288  0.64465391  0.16802840     0.06300
C862        C  0.24126928  0.65199193  0.16948294     0.04400
H863        H  0.21541609  0.64591959  0.17975051     0.09500
H864        H  0.24935689  0.65141696  0.16359343     0.08300
N865        N  0.04018929  0.73951791  0.61047895    -0.26100
N866        N  0.03737247  0.73581205  0.59663766    -0.34000
C867        C  0.02602587  0.73490455  0.59570127     0.02200
C868        C  0.02128111  0.73811812  0.60961209     0.08300
C869        C  0.03054905  0.74110420  0.61873605    -0.04800
H870        H  0.02153764  0.73230315  0.58542411     0.08900
H871        H  0.03031864  0.74406585  0.63051710     0.10100
Cu872      Cu  0.04870618  0.73227871  0.57903597     0.44200
Cu873      Cu  0.05724793  0.74181196  0.61679762     0.42000
Cu874      Cu  0.07810477  0.73609247  0.58538241     0.43900
N875        N  0.06067458  0.73012121  0.56181478    -0.33500
N876        N  0.07165476  0.73187236  0.56393296    -0.27700
C877        C  0.07712231  0.73049468  0.55043158    -0.03800
C878        C  0.06915605  0.72761698  0.53931400     0.08400
C879        C  0.05883071  0.72748121  0.54699984     0.02200
H880        H  0.08619383  0.73153227  0.54884632     0.09800
H881        H  0.05050768  0.72600049  0.54206811     0.08900
N882        N  0.08230682  0.73944176  0.60812089    -0.34900
N883        N  0.07500144  0.74178918  0.61930727    -0.27100
C884        C  0.08087946  0.74330926  0.63246382    -0.02300
C885        C  0.09235479  0.74166624  0.62943978     0.06300
C886        C  0.09291693  0.73924940  0.61390878     0.04400
H887        H  0.07704670  0.74507449  0.64352863     0.09500
H888        H  0.10049849  0.73743514  0.60726518     0.08300
N889        N  0.17106124  0.72706239  0.71359083    -0.26100
N890        N  0.18034432  0.73329561  0.71495206    -0.34000
C891        C  0.18781746  0.72794826  0.72409006     0.02200
C892        C  0.18309763  0.71779734  0.72886183     0.08300
C893        C  0.17238774  0.71750613  0.72207013    -0.04800
H894        H  0.19612501  0.73124360  0.72706168     0.08900
H895        H  0.16618762  0.71074310  0.72288997     0.10100
Cu896      Cu  0.18267139  0.74888857  0.70464422     0.44200
Cu897      Cu  0.15761919  0.73240696  0.69956319     0.42000
Cu898      Cu  0.16043045  0.76251290  0.68471523     0.43900
N899        N  0.18430164  0.76499349  0.69560689    -0.33500
N900        N  0.17602990  0.77049603  0.68849642    -0.27700
C901        C  0.17984740  0.78092835  0.68448531    -0.03800
C902        C  0.19112726  0.78186806  0.68922009     0.08400
C903        C  0.19355589  0.77159971  0.69627084     0.02200
H904        H  0.17486835  0.78725355  0.67841638     0.09800
H905        H  0.20143729  0.76915895  0.70181837     0.08900
N906        N  0.14689308  0.75146285  0.68043497    -0.34900
N907        N  0.14608897  0.74072264  0.68501630    -0.27100
C908        C  0.13666934  0.73611225  0.67874169    -0.02300
C909        C  0.13122162  0.74435784  0.67003577     0.06300
C910        C  0.13792696  0.75394812  0.67141584     0.04400
H911        H  0.13398942  0.72739351  0.68039863     0.09500
H912        H  0.13662028  0.76205012  0.66576624     0.08300
N913        N  0.04096629  0.73459091  0.40113495    -0.26100
N914        N  0.03827039  0.73199626  0.41545800    -0.34000
C915        C  0.02695625  0.73116487  0.41673670     0.02200
C916        C  0.02208266  0.73320381  0.40254628     0.08300
C917        C  0.03123742  0.73549467  0.39287467    -0.04800
H918        H  0.02259200  0.72928965  0.42738439     0.08900
H919        H  0.03087450  0.73743289  0.38072863     0.10100
Cu920      Cu  0.04959451  0.72937195  0.43319975     0.44200
Cu921      Cu  0.05800643  0.73627609  0.39429161     0.42000
Cu922      Cu  0.07873593  0.73269018  0.42663486     0.43900
N923        N  0.06140062  0.72754991  0.45054172    -0.33500
N924        N  0.07239390  0.72911569  0.44837928    -0.27700
C925        C  0.07779337  0.72817573  0.46200486    -0.03800
C926        C  0.06973802  0.72577846  0.47322319     0.08400
C927        C  0.05945562  0.72546147  0.46546793     0.02200
H928        H  0.08685359  0.72927258  0.46362759     0.09800
H929        H  0.05108788  0.72432507  0.47041775     0.08900
N930        N  0.08301837  0.73544515  0.40375117    -0.34900
N931        N  0.07581436  0.73667824  0.39214205    -0.27100
C932        C  0.08187212  0.73809198  0.37910424    -0.02300
C933        C  0.09340439  0.73777388  0.38268051     0.06300
C934        C  0.09372936  0.73606064  0.39841418     0.04400
H935        H  0.07813378  0.73941193  0.36787883     0.09500
H936        H  0.10122192  0.73511450  0.40553233     0.08300
N937        N  0.16559772  0.73090677  0.28647268    -0.26100
N938        N  0.17347578  0.73826399  0.28226796    -0.34000
C939        C  0.17948868  0.73395988  0.27052806     0.02200
C940        C  0.17530937  0.72328641  0.26693115     0.08300
C941        C  0.16649048  0.72157293  0.27739794    -0.04800
H942        H  0.18677966  0.73812972  0.26547332     0.08900
H943        H  0.16121122  0.71408538  0.27844658     0.10100
Cu944      Cu  0.17675857  0.75342202  0.29331704     0.44200
Cu945      Cu  0.15464063  0.73453838  0.30490875     0.42000
Cu946      Cu  0.16085798  0.76196810  0.32574888     0.43900
N947        N  0.18073423  0.76770114  0.30596084    -0.33500
N948        N  0.17488935  0.77117068  0.31806537    -0.27700
C949        C  0.17995167  0.78053637  0.32392483    -0.03800
C950        C  0.18950996  0.78287639  0.31509664     0.08400
C951        C  0.18967478  0.77457225  0.30383444     0.02200
H952        H  0.17714062  0.78503458  0.33411350     0.09800
H953        H  0.19593743  0.77350937  0.29481516     0.08900
N954        N  0.14753338  0.75084390  0.33071583    -0.34900
N955        N  0.14526733  0.74117897  0.32345370    -0.27100
C956        C  0.13600092  0.73643419  0.32994151    -0.02300
C957        C  0.13225503  0.74337779  0.34187072     0.06300
C958        C  0.13980207  0.75242596  0.34192925     0.04400
H959        H  0.13237581  0.72840728  0.32634500     0.09500
H960        H  0.13961784  0.75978171  0.34942348     0.08300
N961        N  0.45504312  0.78205772  0.89940319    -0.26100
N962        N  0.45756338  0.78571898  0.91336973    -0.34000
C963        C  0.46873540  0.78786708  0.91423266     0.02200
C964        C  0.47369828  0.78550969  0.90016246     0.08300
C965        C  0.46474406  0.78172192  0.89099204    -0.04800
H966        H  0.47298572  0.79075487  0.92455661     0.08900
H967        H  0.46521194  0.77911472  0.87907200     0.10100
Cu968      Cu  0.44614255  0.78748654  0.93130556     0.44200
Cu969      Cu  0.43817131  0.77829928  0.89325912     0.42000
Cu970      Cu  0.41711887  0.78233072  0.92540424     0.43900
N971        N  0.43449457  0.78798169  0.94911063    -0.33500
N972        N  0.42357032  0.78583916  0.94717453    -0.27700
C973        C  0.41829283  0.78648678  0.96093556    -0.03800
C974        C  0.42633893  0.78929747  0.97201355     0.08400
C975        C  0.43650117  0.79012934  0.96402749     0.02200
H976        H  0.40927432  0.78518491  0.96269783     0.09800
H977        H  0.44481498  0.79198155  0.96874807     0.08900
N978        N  0.41305470  0.77899813  0.90253104    -0.34900
N979        N  0.42038088  0.77713471  0.89119073    -0.27100
C980        C  0.41446053  0.77522380  0.87814474    -0.02300
C981        C  0.40293183  0.77610057  0.88139160     0.06300
C982        C  0.40239776  0.77849989  0.89693234     0.04400
H983        H  0.41827370  0.77373585  0.86699442     0.09500
H984        H  0.39478858  0.77981882  0.90372271     0.08300
N985        N  0.32532647  0.79112113  0.79587329    -0.26100
N986        N  0.31629026  0.78470528  0.79342153    -0.34000
C987        C  0.30875795  0.79040186  0.78478758     0.02200
C988        C  0.31312579  0.80101171  0.78146616     0.08300
C989        C  0.32375372  0.80118916  0.78857381    -0.04800
H990        H  0.30059952  0.78704649  0.78124011     0.08900
H991        H  0.32969373  0.80820768  0.78882527     0.10100
Cu992      Cu  0.31400132  0.76858861  0.80210596     0.44200
Cu993      Cu  0.33860770  0.78523668  0.80999696     0.42000
Cu994      Cu  0.33482547  0.75527587  0.82493678     0.43900
N995        N  0.31166058  0.75272690  0.81158380    -0.33500
N996        N  0.31936026  0.74747738  0.82006947    -0.27700
C997        C  0.31506654  0.73741330  0.82476217    -0.03800
C998        C  0.30407182  0.73643380  0.81900582     0.08400
C999        C  0.30229498  0.74629004  0.81064694     0.02200
H1000       H  0.31948788  0.73142808  0.83210526     0.09800
H1001       H  0.29473861  0.74863367  0.80426296     0.08900
N1002       N  0.34859659  0.76587618  0.82954195    -0.34900
N1003       N  0.34978596  0.77655316  0.82484410    -0.27100
C1004       C  0.35923928  0.78089993  0.83136603    -0.02300
C1005       C  0.36429090  0.77255776  0.84035309     0.06300
C1006       C  0.35732956  0.76316805  0.83887801     0.04400
H1007       H  0.36217992  0.78953985  0.82977779     0.09500
H1008       H  0.35827182  0.75508500  0.84470534     0.08300
N1009       N  0.45543536  0.78358028  0.10832242    -0.26100
N1010       N  0.45762049  0.78836009  0.09490309    -0.34000
C1011       C  0.46887088  0.78994644  0.09350133     0.02200
C1012       C  0.47418855  0.78595996  0.10661691     0.08300
C1013       C  0.46540263  0.78188529  0.11579450    -0.04800
H1014       H  0.47292887  0.79351608  0.08344250     0.08900
H1015       H  0.46618763  0.77811824  0.12709090     0.10100
Cu1016     Cu  0.44549471  0.79192075  0.07836710     0.44200
Cu1017     Cu  0.43865895  0.78019243  0.11511659     0.42000
Cu1018     Cu  0.41639025  0.78652870  0.08522480     0.43900
N1019       N  0.43337103  0.79287544  0.06121411    -0.33500
N1020       N  0.42250810  0.79051766  0.06334144    -0.27700
C1021       C  0.41720964  0.79057362  0.04954829    -0.03800
C1022       C  0.42518520  0.79319063  0.03826653     0.08400
C1023       C  0.43529801  0.79458510  0.04619787     0.02200
H1024       H  0.40831414  0.78858502  0.04783164     0.09800
H1025       H  0.44363559  0.79603327  0.04130805     0.08900
N1026       N  0.41320411  0.78226682  0.10816030    -0.34900
N1027       N  0.42099189  0.77957120  0.11860186    -0.27100
C1028       C  0.41567826  0.77711925  0.13193853    -0.02300
C1029       C  0.40405766  0.77849971  0.12988047     0.06300
C1030       C  0.40283228  0.78177375  0.11469441     0.04400
H1031       H  0.41998749  0.77486038  0.14250424     0.09500
H1032       H  0.39493962  0.78362934  0.10877660     0.08300
N1033       N  0.33101267  0.78804683  0.22349098    -0.26100
N1034       N  0.32291657  0.78091523  0.22767530    -0.34000
C1035       C  0.31563334  0.78624020  0.23713331     0.02200
C1036       C  0.31924501  0.79730044  0.23918719     0.08300
C1037       C  0.32907757  0.79820771  0.23038771    -0.04800
H1038       H  0.30782356  0.78254355  0.24139893     0.08900
H1039       H  0.33394207  0.80585596  0.22828605     0.10100
Cu1040     Cu  0.32055564  0.76498263  0.21828730     0.44200
Cu1041     Cu  0.34294524  0.78330277  0.20677645     0.42000
Cu1042     Cu  0.33705301  0.75501978  0.18729458     0.43900
N1043       N  0.31621482  0.75063880  0.20596842    -0.33500
N1044       N  0.32212559  0.74670681  0.19418434    -0.27700
C1045       C  0.31652301  0.73769011  0.18815065    -0.03800
C1046       C  0.30655683  0.73605823  0.19653651     0.08400
C1047       C  0.30675407  0.74442612  0.20772983     0.02200
H1048       H  0.31925546  0.73296593  0.17811083     0.09800
H1049       H  0.30035858  0.74603011  0.21642694     0.08900
N1050       N  0.35108656  0.76561676  0.18316886    -0.34900
N1051       N  0.35295836  0.77568629  0.18964159    -0.27100
C1052       C  0.36239413  0.78024901  0.18339091    -0.02300
C1053       C  0.36677841  0.77268208  0.17268947     0.06300
C1054       C  0.35941786  0.76351016  0.17288676     0.04400
H1055       H  0.36580521  0.78850603  0.18639687     0.09500
H1056       H  0.35986422  0.75600684  0.16567317     0.08300
N1057       N  0.27792854  0.83887999  0.72218348    -0.26100
N1058       N  0.27117673  0.83012575  0.72484581    -0.34000
C1059       C  0.27583255  0.82342833  0.73560796     0.02200
C1060       C  0.28607456  0.82807524  0.74019466     0.08300
C1061       C  0.28722304  0.83787526  0.73131613    -0.04800
H1062       H  0.27200003  0.81565528  0.73977001     0.08900
H1063       H  0.29414057  0.84392668  0.73172666     0.10100
Cu1064     Cu  0.25570341  0.82737205  0.71432701     0.44200
Cu1065     Cu  0.27321297  0.85155325  0.70630797     0.42000
Cu1066     Cu  0.24350491  0.84833733  0.69056928     0.43900
N1067       N  0.24013751  0.82517215  0.70380950    -0.33500
N1068       N  0.23521707  0.83301713  0.69519376    -0.27700
C1069       C  0.22536754  0.82877716  0.68960097    -0.03800
C1070       C  0.22420515  0.81767656  0.69486931     0.08400
C1071       C  0.23371915  0.81575142  0.70387115     0.02200
H1072       H  0.21978667  0.83320745  0.68170467     0.09800
H1073       H  0.23594426  0.80796275  0.70980894     0.08900
N1074       N  0.25476734  0.86149517  0.68521418    -0.34900
N1075       N  0.26540450  0.86243920  0.69018497    -0.27100
C1076       C  0.27025780  0.87143806  0.68315305    -0.02300
C1077       C  0.26230125  0.87646782  0.67349356     0.06300
C1078       C  0.25260188  0.86993774  0.67515906     0.04400
H1079       H  0.27894886  0.87414842  0.68497274     0.09500
H1080       H  0.24463511  0.87100589  0.66907307     0.08300
N1081       N  0.26881440  0.96591756  0.61037539    -0.26100
N1082       N  0.27148230  0.96835319  0.59601547    -0.34000
C1083       C  0.27123205  0.97962900  0.59397366     0.02200
C1084       C  0.26816651  0.98472916  0.60765788     0.08300
C1085       C  0.26678166  0.97578969  0.61796395    -0.04800
H1086       H  0.27264332  0.98379141  0.58304888     0.08900
H1087       H  0.26388096  0.97637957  0.62974471     0.10100
Cu1088     Cu  0.27383989  0.95653808  0.57897196     0.44200
Cu1089     Cu  0.26736211  0.94890754  0.61723079     0.42000
Cu1090     Cu  0.27265850  0.92709028  0.58577204     0.43900
N1091       N  0.27516369  0.94485321  0.56156951    -0.33500
N1092       N  0.27472846  0.93373787  0.56362219    -0.27700
C1093       C  0.27556324  0.92861218  0.54973595    -0.03800
C1094       C  0.27664590  0.93701999  0.53854330     0.08400
C1095       C  0.27627491  0.94716652  0.54658526     0.02200
H1096       H  0.27540654  0.91949701  0.54793481     0.09800
H1097       H  0.27647587  0.95568888  0.54188741     0.08900
N1098       N  0.26983517  0.92357308  0.60910355    -0.34900
N1099       N  0.26752928  0.93117525  0.61999209    -0.27100
C1100       C  0.26579380  0.92565338  0.63335984    -0.02300
C1101       C  0.26724303  0.91408964  0.63089645     0.06300
C1102       C  0.26981212  0.91310206  0.61541592     0.04400
H1103       H  0.26385263  0.92978885  0.64417692     0.09500
H1104       H  0.27138193  0.90529736  0.60912338     0.08300
N1105       N  0.27946051  0.83597957  0.29151651    -0.26100
N1106       N  0.27207021  0.82852883  0.28609997    -0.34000
C1107       C  0.27715951  0.82196741  0.27547162     0.02200
C1108       C  0.28836894  0.82539496  0.27391096     0.08300
C1109       C  0.28954726  0.83429573  0.28438169    -0.04800
H1110       H  0.27304490  0.81494509  0.26965957     0.08900
H1111       H  0.29714344  0.83920444  0.28662767     0.10100
Cu1112     Cu  0.25553646  0.82703522  0.29387392     0.44200
Cu1113     Cu  0.27494071  0.84783464  0.30854861     0.42000
Cu1114     Cu  0.24559303  0.84547006  0.32392006     0.43900
N1115       N  0.23999775  0.82510245  0.30461434    -0.33500
N1116       N  0.23621433  0.83166971  0.31586887    -0.27700
C1117       C  0.22642289  0.82724887  0.32133312    -0.03800
C1118       C  0.22408059  0.81736628  0.31316915     0.08400
C1119       C  0.23282474  0.81638072  0.30261040     0.02200
H1120       H  0.22175748  0.83058247  0.33108590     0.09800
H1121       H  0.23416390  0.80952866  0.29446857     0.08900
N1122       N  0.25712475  0.85816382  0.32999458    -0.34900
N1123       N  0.26771877  0.85890128  0.32486685    -0.27100
C1124       C  0.27270662  0.86802068  0.33145359    -0.02300
C1125       C  0.26486427  0.87334769  0.34101228     0.06300
C1126       C  0.25510208  0.86683797  0.33976705     0.04400
H1127       H  0.28133905  0.87072391  0.32918265     0.09500
H1128       H  0.24711263  0.86823161  0.34567857     0.08300
N1129       N  0.26485650  0.96503438  0.40004064    -0.26100
N1130       N  0.26610905  0.96797855  0.41460578    -0.34000
C1131       C  0.26449007  0.97922192  0.41612491     0.02200
C1132       C  0.26216191  0.98375766  0.40183166     0.08300
C1133       C  0.26253080  0.97452763  0.39178656    -0.04800
H1134       H  0.26499686  0.98379052  0.42691851     0.08900
H1135       H  0.26095612  0.97466859  0.37953178     0.10100
Cu1136     Cu  0.26989435  0.95679137  0.43208163     0.44200
Cu1137     Cu  0.26615408  0.94789054  0.39337525     0.42000
Cu1138     Cu  0.27358644  0.92727035  0.42498320     0.43900
N1139       N  0.27297440  0.94522324  0.44935127    -0.33500
N1140       N  0.27410919  0.93415569  0.44709996    -0.27700
C1141       C  0.27552746  0.92903878  0.46086750    -0.03800
C1142       C  0.27541833  0.93739304  0.47220015     0.08400
C1143       C  0.27376326  0.94750836  0.46441523     0.02200
H1144       H  0.27670361  0.91997743  0.46248582     0.09800
H1145       H  0.27298354  0.95593674  0.46936129     0.08900
N1146       N  0.27159571  0.92310326  0.40178033    -0.34900
N1147       N  0.26846720  0.93023981  0.39073578    -0.27100
C1148       C  0.26713408  0.92429067  0.37758744    -0.02300
C1149       C  0.26971619  0.91295368  0.38038683     0.06300
C1150       C  0.27253656  0.91254831  0.39582115     0.04400
H1151       H  0.26447263  0.92795843  0.36675814     0.09500
H1152       H  0.27468496  0.90503129  0.40240438     0.08300
N1153       N  0.45294196  0.23838497  0.90386781    -0.26100
N1154       N  0.45597853  0.23836983  0.91850262    -0.34000
C1155       C  0.46725930  0.23983441  0.91955315     0.02200
C1156       C  0.47170850  0.24079811  0.90490840     0.08300
C1157       C  0.46238551  0.23972199  0.89515773    -0.04800
H1158       H  0.47191874  0.24009029  0.93028275     0.08900
H1159       H  0.46243079  0.24012935  0.88273199     0.10100
Cu1160     Cu  0.44490904  0.23674066  0.93682018     0.44200
Cu1161     Cu  0.43580861  0.23717335  0.89735516     0.42000
Cu1162     Cu  0.41511818  0.23560178  0.92983506     0.43900
N1163       N  0.43301969  0.23683863  0.95432558    -0.33500
N1164       N  0.42191637  0.23647441  0.95200748    -0.27700
C1165       C  0.41658612  0.23721605  0.96573591    -0.03800
C1166       C  0.42479175  0.23820975  0.97716919     0.08400
C1167       C  0.43508530  0.23787149  0.96943913     0.02200
H1168       H  0.40744544  0.23735630  0.96723566     0.09800
H1169       H  0.44350473  0.23840739  0.97442440     0.08900
N1170       N  0.41075430  0.23550804  0.90651927    -0.34900
N1171       N  0.41805525  0.23640062  0.89496073    -0.27100
C1172       C  0.41216103  0.23679676  0.88166328    -0.02300
C1173       C  0.40065015  0.23596198  0.88495016     0.06300
C1174       C  0.40009904  0.23512507  0.90080573     0.04400
H1175       H  0.41597993  0.23763162  0.87040311     0.09500
H1176       H  0.39246942  0.23464223  0.90773645     0.08300
N1177       N  0.32061501  0.22052125  0.80330684    -0.26100
N1178       N  0.31124839  0.22673900  0.80243600    -0.34000
C1179       C  0.30351986  0.22134043  0.79379959     0.02200
C1180       C  0.30808715  0.21112241  0.78878045     0.08300
C1181       C  0.31904662  0.21090233  0.79496710    -0.04800
H1182       H  0.29531932  0.22491170  0.79076952     0.08900
H1183       H  0.32541815  0.20432677  0.79340377     0.10100
Cu1184     Cu  0.30941845  0.24285643  0.81148980     0.44200
Cu1185     Cu  0.33476725  0.22641901  0.81576917     0.42000
Cu1186     Cu  0.33270773  0.25706178  0.82839937     0.43900
N1187       N  0.30842993  0.25947027  0.81899946    -0.33500
N1188       N  0.31705511  0.26510157  0.82502004    -0.27700
C1189       C  0.31351429  0.27573441  0.82865005    -0.03800
C1190       C  0.30205951  0.27668465  0.82481468     0.08400
C1191       C  0.29921646  0.26621729  0.81865127     0.02200
H1192       H  0.31877497  0.28215605  0.83401392     0.09800
H1193       H  0.29102848  0.26367731  0.81412599     0.08900
N1194       N  0.34629071  0.24607168  0.83297789    -0.34900
N1195       N  0.34687313  0.23513918  0.82916688    -0.27100
C1196       C  0.35626515  0.23059163  0.83569862    -0.02300
C1197       C  0.36191271  0.23905271  0.84379334     0.06300
C1198       C  0.35535411  0.24872957  0.84173250     0.04400
H1199       H  0.35872104  0.22172606  0.83480602     0.09500
H1200       H  0.35674924  0.25699322  0.84690633     0.08300
N1201       N  0.45390483  0.23713869  0.11579554    -0.26100
N1202       N  0.45635065  0.23542707  0.10113732    -0.34000
C1203       C  0.46754790  0.23354231  0.09959385     0.02200
C1204       C  0.47257709  0.23413933  0.11391601     0.08300
C1205       C  0.46368656  0.23654959  0.12399321    -0.04800
H1206       H  0.47177760  0.23207641  0.08871469     0.08900
H1207       H  0.46426472  0.23762357  0.13632512     0.10100
Cu1208     Cu  0.44474615  0.23609333  0.08336848     0.44200
Cu1209     Cu  0.43702697  0.23966363  0.12306011     0.42000
Cu1210     Cu  0.41549552  0.23948241  0.09110449     0.43900
N1211       N  0.43277928  0.23742007  0.06611032    -0.33500
N1212       N  0.42174367  0.23843873  0.06866365    -0.27700
C1213       C  0.41632326  0.23923721  0.05499438    -0.03800
C1214       C  0.42445054  0.23887343  0.04339133     0.08400
C1215       C  0.43474382  0.23768870  0.05093057     0.02200
H1216       H  0.40723752  0.24039958  0.05362416     0.09800
H1217       H  0.44310274  0.23713564  0.04574383     0.08900
N1218       N  0.41179019  0.24094225  0.11454237    -0.34900
N1219       N  0.41929062  0.24096580  0.12593930    -0.27100
C1220       C  0.41361092  0.24196465  0.13937722    -0.02300
C1221       C  0.40202120  0.24269990  0.13632374     0.06300
C1222       C  0.40125738  0.24200231  0.12045277     0.04400
H1223       H  0.41765303  0.24232472  0.15054291     0.09500
H1224       H  0.39356076  0.24211056  0.11362500     0.08300
N1225       N  0.32800095  0.23136921  0.22921667    -0.26100
N1226       N  0.32248021  0.23924531  0.23715490    -0.34000
C1227       C  0.31554394  0.23420044  0.24728240     0.02200
C1228       C  0.31634119  0.22248804  0.24551671     0.08300
C1229       C  0.32449523  0.22100789  0.23403462    -0.04800
H1230       H  0.30983195  0.23885241  0.25475880     0.08900
H1231       H  0.32710202  0.21303982  0.22883871     0.10100
Cu1232     Cu  0.32184350  0.25638143  0.23154881     0.44200
Cu1233     Cu  0.33919339  0.23570258  0.21134909     0.42000
Cu1234     Cu  0.33554580  0.26534108  0.19751980     0.43900
N1235       N  0.31795242  0.27168761  0.22087241    -0.33500
N1236       N  0.32283517  0.27503011  0.20798139    -0.27700
C1237       C  0.31762685  0.28460499  0.20302206    -0.03800
C1238       C  0.30894095  0.28731982  0.21322893     0.08400
C1239       C  0.30947006  0.27893685  0.22441410     0.02200
H1240       H  0.31957980  0.28888331  0.19234039     0.09800
H1241       H  0.30380436  0.27790945  0.23411780     0.08900
N1242       N  0.34830771  0.25420512  0.19020508    -0.34900
N1243       N  0.34976294  0.24362353  0.19509640    -0.27100
C1244       C  0.35902817  0.23917610  0.18809284    -0.02300
C1245       C  0.36359313  0.24730297  0.17827274     0.06300
C1246       C  0.35653221  0.25670233  0.18001258     0.04400
H1247       H  0.36209637  0.23057972  0.18984559     0.09500
H1248       H  0.35737860  0.26488541  0.17445083     0.08300
N1249       N  0.26400330  0.05223598  0.60791165    -0.26100
N1250       N  0.26531020  0.04974748  0.59319882    -0.34000
C1251       C  0.26532381  0.03843552  0.59134010     0.02200
C1252       C  0.26392736  0.03336635  0.60552824     0.08300
C1253       C  0.26322247  0.04238658  0.61588546    -0.04800
H1254       H  0.26636049  0.03420816  0.58036311     0.08900
H1255       H  0.26200053  0.04183862  0.62819052     0.10100
Cu1256     Cu  0.26689603  0.06145540  0.57576996     0.44200
Cu1257     Cu  0.26322528  0.06918884  0.61534171     0.42000
Cu1258     Cu  0.26636125  0.09066697  0.58332905     0.43900
N1259       N  0.26791074  0.07334283  0.55848788    -0.33500
N1260       N  0.26746578  0.08442078  0.56094291    -0.27700
C1261       C  0.26784505  0.08982559  0.54725104    -0.03800
C1262       C  0.26872529  0.08164608  0.53571992     0.08400
C1263       C  0.26869206  0.07133087  0.54336123     0.02200
H1264       H  0.26755781  0.09897212  0.54581391     0.09800
H1265       H  0.26889403  0.06291718  0.53827287     0.08900
N1266       N  0.26515285  0.09436074  0.60674258    -0.34900
N1267       N  0.26361400  0.08693321  0.61802787    -0.27100
C1268       C  0.26282146  0.09268706  0.63142451    -0.02300
C1269       C  0.26411416  0.10419957  0.62845426     0.06300
C1270       C  0.26558483  0.10491462  0.61273125     0.04400
H1271       H  0.26162308  0.08875878  0.64254989     0.09500
H1272       H  0.26671475  0.11259427  0.60605616     0.08300
N1273       N  0.27712955  0.18014489  0.71877314    -0.26100
N1274       N  0.27036626  0.18893041  0.72155441    -0.34000
C1275       C  0.27419545  0.19463413  0.73387131     0.02200
C1276       C  0.28387817  0.18926803  0.73935284     0.08300
C1277       C  0.28558086  0.18012954  0.72936586    -0.04800
H1278       H  0.27012196  0.20214776  0.73857835     0.08900
H1279       H  0.29219751  0.17371999  0.73010730     0.10100
Cu1280     Cu  0.25569688  0.19269972  0.70939668     0.44200
Cu1281     Cu  0.27329630  0.16836178  0.70128884     0.42000
Cu1282     Cu  0.24410670  0.17253771  0.68408848     0.43900
N1283       N  0.24060572  0.19552014  0.69773275    -0.33500
N1284       N  0.23590156  0.18795722  0.68848543    -0.27700
C1285       C  0.22625898  0.19245917  0.68251960    -0.03800
C1286       C  0.22499051  0.20344586  0.68824615     0.08400
C1287       C  0.23423692  0.20501993  0.69786146     0.02200
H1288       H  0.22087103  0.18826124  0.67417877     0.09800
H1289       H  0.23627828  0.21261181  0.70435392     0.08900
N1290       N  0.25501736  0.15886886  0.67974457    -0.34900
N1291       N  0.26554957  0.15758656  0.68500391    -0.27100
C1292       C  0.27007693  0.14810255  0.67862346    -0.02300
C1293       C  0.26195751  0.14313357  0.66918852     0.06300
C1294       C  0.25256337  0.15018438  0.67023103     0.04400
H1295       H  0.27859139  0.14496521  0.68084791     0.09500
H1296       H  0.24458366  0.14924359  0.66415240     0.08300
N1297       N  0.25926467  0.05129274  0.39778147    -0.26100
N1298       N  0.25937171  0.04897433  0.41263871    -0.34000
C1299       C  0.25893338  0.03770331  0.41471347     0.02200
C1300       C  0.25848898  0.03244671  0.40053202     0.08300
C1301       C  0.25882535  0.04132798  0.38993512    -0.04800
H1302       H  0.25903668  0.03361580  0.42585484     0.08900
H1303       H  0.25854049  0.04060757  0.37753819     0.10100
Cu1304     Cu  0.26021816  0.06078612  0.43003524     0.44200
Cu1305     Cu  0.25943145  0.06825445  0.39014200     0.42000
Cu1306     Cu  0.26058915  0.08988359  0.42244497     0.43900
N1307       N  0.26183222  0.07261359  0.44731288    -0.33500
N1308       N  0.26186191  0.08368524  0.44480749    -0.27700
C1309       C  0.26335808  0.08911223  0.45835444    -0.03800
C1310       C  0.26446830  0.08094749  0.46981486     0.08400
C1311       C  0.26339900  0.07061357  0.46233198     0.02200
H1312       H  0.26397949  0.09825021  0.45968637     0.09800
H1313       H  0.26380303  0.06221552  0.46740989     0.08900
N1314       N  0.25968575  0.09351063  0.39900370    -0.34900
N1315       N  0.25936467  0.08605795  0.38753296    -0.27100
C1316       C  0.25881822  0.09184063  0.37414378    -0.02300
C1317       C  0.25871352  0.10343139  0.37733369     0.06300
C1318       C  0.25931509  0.10409917  0.39319569     0.04400
H1319       H  0.25830641  0.08787821  0.36292893     0.09500
H1320       H  0.25958509  0.11176320  0.40010161     0.08300
N1321       N  0.27550995  0.17760558  0.28682565    -0.26100
N1322       N  0.26788227  0.18266151  0.27797017    -0.34000
C1323       C  0.27315417  0.18976004  0.26829385     0.02200
C1324       C  0.28472395  0.18949194  0.27125241     0.08300
C1325       C  0.28595046  0.18153210  0.28299963    -0.04800
H1326       H  0.26872494  0.19535699  0.26042861     0.08900
H1327       H  0.29371255  0.17942067  0.28907394     0.10100
Cu1328     Cu  0.25053680  0.18271023  0.28185976     0.44200
Cu1329     Cu  0.27048731  0.16670290  0.30462551     0.42000
Cu1330     Cu  0.23988763  0.17025846  0.31550819     0.43900
N1331       N  0.23484599  0.18714387  0.29085290    -0.33500
N1332       N  0.23081605  0.18274528  0.30368811    -0.27700
C1333       C  0.22117482  0.18833025  0.30756824    -0.03800
C1334       C  0.21916222  0.19676268  0.29669584     0.08400
C1335       C  0.22801350  0.19568049  0.28626637     0.02200
H1336       H  0.21637457  0.18681710  0.31797753     0.09800
H1337       H  0.22964201  0.20099687  0.27636788     0.08900
N1338       N  0.25084171  0.15778920  0.32407716    -0.34900
N1339       N  0.26167013  0.15635548  0.32022073    -0.27100
C1340       C  0.26575230  0.14710771  0.32761795    -0.02300
C1341       C  0.25712850  0.14256042  0.33660071     0.06300
C1342       C  0.24783933  0.14958563  0.33402584     0.04400
H1343       H  0.27439214  0.14397401  0.32659671     0.09500
H1344       H  0.23937937  0.14866279  0.33876342     0.08300
N1345       N  0.24070796  0.46368921  0.90043719    -0.26100
N1346       N  0.24323491  0.46592024  0.91492797    -0.34000
C1347       C  0.24516147  0.47709771  0.91654480     0.02200
C1348       C  0.24386246  0.48234584  0.90240320     0.08300
C1349       C  0.24095327  0.47353987  0.89241047    -0.04800
H1350       H  0.24691169  0.48116138  0.92745689     0.08900
H1351       H  0.23909431  0.47423040  0.88026578     0.10100
Cu1352     Cu  0.24301424  0.45411338  0.93253103     0.44200
Cu1353     Cu  0.23666733  0.44715528  0.89332184     0.42000
Cu1354     Cu  0.23198918  0.42660219  0.92558863     0.43900
N1355       N  0.24043185  0.44244849  0.94995504    -0.33500
N1356       N  0.23605659  0.43225022  0.94768691    -0.27700
C1357       C  0.23490678  0.42702883  0.96142007    -0.03800
C1358       C  0.23880291  0.43433594  0.97288360     0.08400
C1359       C  0.24218193  0.44403145  0.96505347     0.02200
H1360       H  0.23148576  0.41856508  0.96290663     0.09800
H1361       H  0.24527275  0.45189538  0.96998269     0.08900
N1362       N  0.23060885  0.42275312  0.90219737    -0.34900
N1363       N  0.23276857  0.42985992  0.89073427    -0.27100
C1364       C  0.23240096  0.42401704  0.87738555    -0.02300
C1365       C  0.22970864  0.41278714  0.88055277     0.06300
C1366       C  0.22861050  0.41232185  0.89636574     0.04400
H1367       H  0.23421491  0.42762351  0.86621461     0.09500
H1368       H  0.22713190  0.40478888  0.90321666     0.08300
N1369       N  0.21590872  0.33520040  0.79324514    -0.26100
N1370       N  0.22279891  0.32660700  0.78995496    -0.34000
C1371       C  0.21888931  0.32105062  0.77757290     0.02200
C1372       C  0.20897388  0.32625404  0.77271299     0.08300
C1373       C  0.20723866  0.33518206  0.78299560    -0.04800
H1374       H  0.22299641  0.31369850  0.77246345     0.08900
H1375       H  0.20040520  0.34138296  0.78274387     0.10100
Cu1376     Cu  0.23749024  0.32262997  0.80178999     0.44200
Cu1377     Cu  0.21975734  0.34681672  0.81088358     0.42000
Cu1378     Cu  0.24873780  0.34259285  0.82787873     0.43900
N1379       N  0.25262374  0.31991482  0.81324191    -0.33500
N1380       N  0.25720625  0.32745883  0.82263701    -0.27700
C1381       C  0.26710132  0.32320588  0.82810828    -0.03800
C1382       C  0.26865087  0.31241923  0.82191253     0.08400
C1383       C  0.25930324  0.31063708  0.81258733     0.02200
H1384       H  0.27251730  0.32744461  0.83637604     0.09800
H1385       H  0.25744966  0.30309449  0.80588552     0.08900
N1386       N  0.23794556  0.35633366  0.83241950    -0.34900
N1387       N  0.22747529  0.35769848  0.82700563    -0.27100
C1388       C  0.22308490  0.36740261  0.83292615    -0.02300
C1389       C  0.23121595  0.37243886  0.84228300     0.06300
C1390       C  0.24048651  0.36516226  0.84165710     0.04400
H1391       H  0.21469243  0.37069742  0.83031183     0.09500
H1392       H  0.24848935  0.36613000  0.84767171     0.08300
N1393       N  0.22963776  0.46677285  0.10965447    -0.26100
N1394       N  0.23014268  0.46905489  0.09479833    -0.34000
C1395       C  0.22872685  0.48027189  0.09262959     0.02200
C1396       C  0.22727185  0.48546790  0.10676591     0.08300
C1397       C  0.22800026  0.47665253  0.11739643    -0.04800
H1398       H  0.22869657  0.48435969  0.08148686     0.08900
H1399       H  0.22703396  0.47732435  0.12973555     0.10100
Cu1400     Cu  0.23214624  0.45694115  0.07775294     0.44200
Cu1401     Cu  0.23037602  0.44991772  0.11756870     0.42000
Cu1402     Cu  0.22852193  0.42773935  0.08640751     0.43900
N1403       N  0.23286116  0.44435988  0.06115373    -0.33500
N1404       N  0.23106579  0.43346308  0.06394887    -0.27700
C1405       C  0.23196001  0.42761486  0.05059810    -0.03800
C1406       C  0.23461549  0.43526919  0.03897135     0.08400
C1407       C  0.23506570  0.44576863  0.04615225     0.02200
H1408       H  0.23108881  0.41847877  0.04951556     0.09800
H1409       H  0.23680700  0.45389868  0.04082195     0.08900
N1410       N  0.22881878  0.42450114  0.11003671    -0.34900
N1411       N  0.23004923  0.43222448  0.12105904    -0.27100
C1412       C  0.23088133  0.42680642  0.13468883    -0.02300
C1413       C  0.22996926  0.41518457  0.13216565     0.06300
C1414       C  0.22864590  0.41407370  0.11643351     0.04400
H1415       H  0.23199734  0.43102556  0.14565205     0.09500
H1416       H  0.22798629  0.40620114  0.11001829     0.08300
N1417       N  0.21745833  0.33955889  0.22133860    -0.26100
N1418       N  0.22487752  0.33434782  0.23035475    -0.34000
C1419       C  0.21928205  0.32777971  0.24046407     0.02200
C1420       C  0.20773620  0.32875841  0.23765523     0.08300
C1421       C  0.20687430  0.33626747  0.22537427    -0.04800
H1422       H  0.22335688  0.32215300  0.24864037     0.08900
H1423       H  0.19914917  0.33899228  0.21966586     0.10100
Cu1424     Cu  0.24224792  0.33461304  0.22661930     0.44200
Cu1425     Cu  0.22264430  0.35067022  0.20390537     0.42000
Cu1426     Cu  0.25331264  0.34982413  0.19424094     0.43900
N1427       N  0.25812009  0.33143913  0.21727564    -0.33500
N1428       N  0.26223570  0.33659985  0.20500095    -0.27700
C1429       C  0.27198859  0.33130542  0.20078813    -0.03800
C1430       C  0.27397503  0.32231713  0.21086104     0.08400
C1431       C  0.26502896  0.32280467  0.22119165     0.02200
H1432       H  0.27691357  0.33344762  0.19069671     0.09800
H1433       H  0.26338182  0.31702658  0.23059439     0.08900
N1434       N  0.24182453  0.36210561  0.18616124    -0.34900
N1435       N  0.23077149  0.36219060  0.18921149    -0.27100
C1436       C  0.22591247  0.37106064  0.18185594    -0.02300
C1437       C  0.23427888  0.37693219  0.17392623     0.06300
C1438       C  0.24425127  0.37100155  0.17696969     0.04400
H1439       H  0.21694885  0.37317645  0.18242087     0.09500
H1440       H  0.25264532  0.37287364  0.17254448     0.08300
N1441       N  0.04051357  0.28754151  0.60801062    -0.26100
N1442       N  0.03806165  0.28945450  0.59341824    -0.34000
C1443       C  0.02686655  0.29127991  0.59189993     0.02200
C1444       C  0.02180876  0.29060968  0.60621342     0.08300
C1445       C  0.03074022  0.28811326  0.61623114    -0.04800
H1446       H  0.02268610  0.29276084  0.58099675     0.08900
H1447       H  0.03019413  0.28689819  0.62853469     0.10100
Cu1448     Cu  0.04965421  0.28955960  0.57568458     0.44200
Cu1449     Cu  0.05734843  0.28432890  0.61492582     0.42000
Cu1450     Cu  0.07867050  0.28446756  0.58255039     0.43900
N1451       N  0.06144357  0.28933887  0.55819537    -0.33500
N1452       N  0.07233716  0.28710163  0.56041053    -0.27700
C1453       C  0.07760328  0.28678806  0.54662041    -0.03800
C1454       C  0.06957548  0.28909631  0.53528894     0.08400
C1455       C  0.05945522  0.29066506  0.54311561     0.02200
H1456       H  0.08654670  0.28492993  0.54495491     0.09800
H1457       H  0.05113627  0.29218502  0.53816206     0.08900
N1458       N  0.08248085  0.28245050  0.60586571    -0.34900
N1459       N  0.07502311  0.28209354  0.61731019    -0.27100
C1460       C  0.08075161  0.28074942  0.63064263    -0.02300
C1461       C  0.09231582  0.28041864  0.62748618     0.06300
C1462       C  0.09305818  0.28151596  0.61168510     0.04400
H1463       H  0.07680896  0.28047318  0.64187686     0.09500
H1464       H  0.10076409  0.28170148  0.60487859     0.08300
N1465       N  0.17244878  0.29481991  0.70873540    -0.26100
N1466       N  0.18226239  0.28931876  0.70804041    -0.34000
C1467       C  0.18994055  0.29464950  0.71686791     0.02200
C1468       C  0.18481090  0.30400980  0.72365094     0.08300
C1469       C  0.17364164  0.30383154  0.71829432    -0.04800
H1470       H  0.19851588  0.29157667  0.71880329     0.08900
H1471       H  0.16688506  0.30973503  0.72121600     0.10100
Cu1472     Cu  0.18462296  0.27395737  0.69691555     0.44200
Cu1473     Cu  0.15822161  0.28896413  0.69658116     0.42000
Cu1474     Cu  0.16104342  0.25909299  0.68148377     0.43900
N1475       N  0.18580730  0.25742055  0.68898254    -0.33500
N1476       N  0.17714068  0.25155276  0.68351895    -0.27700
C1477       C  0.18081517  0.24094378  0.67995272    -0.03800
C1478       C  0.19240030  0.24018405  0.68331828     0.08400
C1479       C  0.19513739  0.25082426  0.68913033     0.02200
H1480       H  0.17547366  0.23434318  0.67517670     0.09800
H1481       H  0.20326118  0.25354194  0.69365520     0.08900
N1482       N  0.14693898  0.26979211  0.67831878    -0.34900
N1483       N  0.14614400  0.28053280  0.68296965    -0.27100
C1484       C  0.13654184  0.28512355  0.67709863    -0.02300
C1485       C  0.13093826  0.27686272  0.66862596     0.06300
C1486       C  0.13775759  0.26727513  0.66969887     0.04400
H1487       H  0.13393823  0.29390037  0.67863673     0.09500
H1488       H  0.13646377  0.25922965  0.66388786     0.08300
N1489       N  0.04123159  0.28025729  0.39609944    -0.26100
N1490       N  0.03853200  0.28364285  0.41012730    -0.34000
C1491       C  0.02728980  0.28547262  0.41096303     0.02200
C1492       C  0.02248881  0.28314604  0.39679620     0.08300
C1493       C  0.03159614  0.27974810  0.38760645    -0.04800
H1494       H  0.02287297  0.28794962  0.42136747     0.08900
H1495       H  0.03125465  0.27715724  0.37567374     0.10100
Cu1496     Cu  0.04984336  0.28495950  0.42815338     0.44200
Cu1497     Cu  0.05818581  0.27685258  0.39012481     0.42000
Cu1498     Cu  0.07880203  0.27749950  0.42294669     0.43900
N1499       N  0.06131035  0.28446869  0.44607912    -0.33500
N1500       N  0.07205252  0.28134572  0.44449203    -0.27700
C1501       C  0.07711915  0.28161219  0.45841372    -0.03800
C1502       C  0.06914059  0.28521041  0.46918019     0.08400
C1503       C  0.05923069  0.28689102  0.46089369     0.02200
H1504       H  0.08597263  0.27956198  0.46048677     0.09800
H1505       H  0.05102586  0.28951442  0.46533367     0.08900
N1506       N  0.08317865  0.27566810  0.39983574    -0.34900
N1507       N  0.07593668  0.27552059  0.38814960    -0.27100
C1508       C  0.08190878  0.27479735  0.37494878    -0.02300
C1509       C  0.09343544  0.27443867  0.37843541     0.06300
C1510       C  0.09386793  0.27499741  0.39433680     0.04400
H1511       H  0.07810624  0.27452588  0.36362783     0.09500
H1512       H  0.10142508  0.27523100  0.40143795     0.08300
N1513       N  0.16542538  0.28879446  0.28370215    -0.26100
N1514       N  0.17098482  0.28126756  0.27518816    -0.34000
C1515       C  0.17735417  0.28675544  0.26474847     0.02200
C1516       C  0.17591985  0.29832820  0.26681028     0.08300
C1517       C  0.16835280  0.29934863  0.27901870    -0.04800
H1518       H  0.18333034  0.28263601  0.25705597     0.08900
H1519       H  0.16554049  0.30716552  0.28444734     0.10100
Cu1520     Cu  0.17198939  0.26406855  0.28019711     0.44200
Cu1521     Cu  0.15478824  0.28387609  0.30188604     0.42000
Cu1522     Cu  0.15858130  0.25386348  0.31400317     0.43900
N1523       N  0.17584863  0.24840466  0.28982457    -0.33500
N1524       N  0.17106892  0.24457707  0.30253358    -0.27700
C1525       C  0.17625955  0.23479009  0.30668603    -0.03800
C1526       C  0.18482436  0.23244056  0.29613230     0.08400
C1527       C  0.18423430  0.24125706  0.28558847     0.02200
H1528       H  0.17436291  0.23009280  0.31705889     0.09800
H1529       H  0.18974917  0.24261258  0.27581069     0.08900
N1530       N  0.14637383  0.26494054  0.32286606    -0.34900
N1531       N  0.14484928  0.27564930  0.31854582    -0.27100
C1532       C  0.13594090  0.28001451  0.32640567    -0.02300
C1533       C  0.13171161  0.27169672  0.33618556     0.06300
C1534       C  0.13857297  0.26228176  0.33357505     0.04400
H1535       H  0.13283865  0.28864989  0.32517531     0.09500
H1536       H  0.13781411  0.25397426  0.33882206     0.08300
C1537       C  0.12227259  0.26686509  0.36127765     0.24800
C1538       C  0.12193547  0.27252148  0.34701597    -0.23300
C1539       C  0.11212475  0.27881821  0.34316359     0.19700
C1540       C  0.10286456  0.27942469  0.35331809     0.24700
C1541       C  0.10322084  0.27378908  0.36759523    -0.23300
C1542       C  0.11306301  0.26754411  0.37147012     0.19600
F1543       F  0.11370622  0.26183917  0.38500796    -0.13200
F1544       F  0.13162688  0.26082940  0.36555306    -0.15600
F1545       F  0.09365831  0.28577190  0.34929621    -0.15600
F1546       F  0.11133894  0.28414772  0.32936570    -0.13200
C1547       C  0.06522868  0.29705531  0.50931898     0.24800
C1548       C  0.07088635  0.28888693  0.51835552    -0.23300
C1549       C  0.07681975  0.27998323  0.51101973     0.19700
C1550       C  0.07662439  0.27896512  0.49494134     0.24700
C1551       C  0.07054281  0.28687778  0.48596679    -0.23300
C1552       C  0.06509234  0.29608515  0.49330412     0.19600
F1553       F  0.05957363  0.30416069  0.48495410    -0.13200
F1554       F  0.05973608  0.30596782  0.51601972    -0.15600
F1555       F  0.08173493  0.26983111  0.48825572    -0.15600
F1556       F  0.08213778  0.27182622  0.51944345    -0.13200
C1557       C  0.11119243  0.28729217  0.63713833     0.24800
C1558       C  0.10191598  0.27981452  0.63855901    -0.23300
C1559       C  0.10203580  0.27166741  0.65040519     0.19700
C1560       C  0.11144580  0.27077049  0.66029124     0.24700
C1561       C  0.12071490  0.27823511  0.65881368    -0.23300
C1562       C  0.12041691  0.28662581  0.64732070     0.19600
F1563       F  0.12927213  0.29390617  0.64556592    -0.13200
F1564       F  0.11127719  0.29534318  0.62595364    -0.15600
F1565       F  0.11149393  0.26264619  0.67138100    -0.15600
F1566       F  0.09324802  0.26429029  0.65203482    -0.13200
C1567       C  0.19839073  0.32095717  0.26127717     0.24800
C1568       C  0.19863314  0.32204402  0.24516519    -0.23300
C1569       C  0.19073991  0.31588950  0.23630648     0.19700
C1570       C  0.18309021  0.30840637  0.24340710     0.24700
C1571       C  0.18293165  0.30725741  0.25949849    -0.23300
C1572       C  0.19049917  0.31375319  0.26839031     0.19600
F1573       F  0.19072352  0.31258679  0.28391541    -0.13200
F1574       F  0.20593473  0.32675027  0.27013152    -0.15600
F1575       F  0.17599765  0.30207161  0.23454868    -0.15600
F1576       F  0.19091131  0.31657053  0.22072698    -0.13200
C1577       C  0.23964594  0.40537571  0.15429146     0.24800
C1578       C  0.23070513  0.40580954  0.14354965    -0.23300
C1579       C  0.22271968  0.39691941  0.14327598     0.19700
C1580       C  0.22368566  0.38772458  0.15346030     0.24700
C1581       C  0.23285116  0.38706415  0.16385128    -0.23300
C1582       C  0.24079762  0.39601863  0.16420736     0.19600
F1583       F  0.24963685  0.39576808  0.17426096    -0.13200
F1584       F  0.24753967  0.41378634  0.15476240    -0.15600
F1585       F  0.21589377  0.37923378  0.15270970    -0.15600
F1586       F  0.21391318  0.39717057  0.13316700    -0.13200
C1587       C  0.20772012  0.31978008  0.74545689     0.24800
C1588       C  0.20213732  0.32267247  0.75922027    -0.23300
C1589       C  0.19036001  0.32075065  0.76042981     0.19700
C1590       C  0.18445970  0.31521706  0.74849831     0.24700
C1591       C  0.19025974  0.31163766  0.73514217    -0.23300
C1592       C  0.20184884  0.31439180  0.73354062     0.19600
F1593       F  0.20760728  0.31162102  0.72051471    -0.13200
F1594       F  0.21899622  0.32193034  0.74367761    -0.15600
F1595       F  0.17332267  0.31258921  0.75054309    -0.15600
F1596       F  0.18476307  0.32340279  0.77361625    -0.13200
C1597       C  0.24675558  0.43859226  0.99904448     0.24800
C1598       C  0.23869256  0.43284538  0.98991435    -0.23300
C1599       C  0.23015098  0.42646886  0.99734863     0.19700
C1600       C  0.22923273  0.42657052  0.01347449     0.24700
C1601       C  0.23671406  0.43317659  0.02238626    -0.23300
C1602       C  0.24570870  0.43883536  0.01503941     0.19600
F1603       F  0.25346546  0.44476146  0.02338996    -0.13200
F1604       F  0.25565876  0.44411118  0.99251414    -0.15600
F1605       F  0.22056038  0.42086210  0.02026642    -0.15600
F1606       F  0.22222940  0.42074145  0.98905852    -0.13200
C1607       C  0.23912214  0.40077378  0.86040938     0.24800
C1608       C  0.22964584  0.40298568  0.86981607    -0.23300
C1609       C  0.22041845  0.39539337  0.86954814     0.19700
C1610       C  0.22070104  0.38568883  0.86011022     0.24700
C1611       C  0.23038388  0.38322462  0.85116220    -0.23300
C1612       C  0.23955756  0.39091140  0.85133502     0.19600
F1613       F  0.24896510  0.38888764  0.84267177    -0.13200
F1614       F  0.24819887  0.40790003  0.86054331    -0.15600
F1615       F  0.21172965  0.37843666  0.86026895    -0.15600
F1616       F  0.21113019  0.39738281  0.87845789    -0.13200
C1617       C  0.21316496  0.21705689  0.29267978     0.24800
C1618       C  0.21034677  0.20587054  0.29700336    -0.23300
C1619       C  0.19908798  0.20353290  0.30151718     0.19700
C1620       C  0.19078042  0.21216917  0.30141957     0.24700
C1621       C  0.19358260  0.22329264  0.29677432    -0.23300
C1622       C  0.20490184  0.22565046  0.29259237     0.19600
F1623       F  0.20810957  0.23639707  0.28888249    -0.13200
F1624       F  0.22403760  0.21981410  0.28897925    -0.15600
F1625       F  0.17991983  0.20955293  0.30535704    -0.15600
F1626       F  0.19602182  0.19279894  0.30548741    -0.13200
C1627       C  0.25161086  0.13251212  0.36086531     0.24800
C1628       C  0.25754734  0.13242926  0.34681934    -0.23300
C1629       C  0.26361160  0.12253944  0.34258640     0.19700
C1630       C  0.26373977  0.11295696  0.35223973     0.24700
C1631       C  0.25799974  0.11317052  0.36645565    -0.23300
C1632       C  0.25183644  0.12302125  0.37054618     0.19600
F1633       F  0.24579877  0.12342471  0.38384523    -0.13200
F1634       F  0.24580460  0.14192725  0.36549833    -0.15600
F1635       F  0.26972659  0.10359601  0.34783940    -0.15600
F1636       F  0.26923269  0.12204680  0.32896494    -0.13200
C1637       C  0.21997131  0.22339955  0.68136504     0.24800
C1638       C  0.21636459  0.21224536  0.68438505    -0.23300
C1639       C  0.20461754  0.20998379  0.68497993     0.19700
C1640       C  0.19665999  0.21895184  0.68389970     0.24700
C1641       C  0.20036485  0.23029004  0.68200668    -0.23300
C1642       C  0.21209970  0.23226549  0.68000030     0.19600
F1643       F  0.21605718  0.24284424  0.67679932    -0.13200
F1644       F  0.23122494  0.22576863  0.67987712    -0.15600
F1645       F  0.18543480  0.21659106  0.68562904    -0.15600
F1646       F  0.20087158  0.19924025  0.68761722    -0.13200
C1647       C  0.27560969  0.07551716  0.50987951     0.24800
C1648       C  0.26899388  0.08304643  0.51878007    -0.23300
C1649       C  0.26184314  0.09091149  0.51125344     0.19700
C1650       C  0.26073782  0.09065176  0.49516494     0.24700
C1651       C  0.26674010  0.08251335  0.48643495    -0.23300
C1652       C  0.27442732  0.07518532  0.49392380     0.19600
F1653       F  0.28073964  0.06756255  0.48579272    -0.13200
F1654       F  0.28314841  0.06831484  0.51667288    -0.15600
F1655       F  0.25320326  0.09778810  0.48825814    -0.15600
F1656       F  0.25533801  0.09829691  0.51948425    -0.13200
C1657       C  0.27242597  0.12219052  0.63905324     0.24800
C1658       C  0.26391771  0.11379460  0.63951660    -0.23300
C1659       C  0.25498787  0.11491193  0.65016477     0.19700
C1660       C  0.25442814  0.12441075  0.65991908     0.24700
C1661       C  0.26297162  0.13277762  0.65952450    -0.23300
C1662       C  0.27205019  0.13151413  0.64913248     0.19600
F1663       F  0.28026643  0.13958476  0.64822721    -0.13200
F1664       F  0.28112415  0.12134922  0.62883049    -0.15600
F1665       F  0.24551229  0.12545277  0.66975930    -0.15600
F1666       F  0.24652130  0.10707869  0.65062914    -0.13200
C1667       C  0.30270967  0.30736050  0.20679709     0.24800
C1668       C  0.30002182  0.29624741  0.21162977    -0.23300
C1669       C  0.28863717  0.29366607  0.21511988     0.19700
C1670       C  0.28020261  0.30205818  0.21437495     0.24700
C1671       C  0.28291331  0.31331307  0.21021115    -0.23300
C1672       C  0.29422047  0.31582603  0.20607268     0.19600
F1673       F  0.29715873  0.32656424  0.20195108    -0.13200
F1674       F  0.31362787  0.31015413  0.20341445    -0.15600
F1675       F  0.26928731  0.29904672  0.21742329    -0.15600
F1676       F  0.28556914  0.28289678  0.21892767    -0.13200
C1677       C  0.29727941  0.21695401  0.25616869     0.24800
C1678       C  0.30854513  0.21385294  0.25241373    -0.23300
C1679       C  0.31205903  0.20253580  0.25524128     0.19700
C1680       C  0.30445251  0.19457669  0.26164545     0.24700
C1681       C  0.29319624  0.19777816  0.26524705    -0.23300
C1682       C  0.28981753  0.20911510  0.26264064     0.19600
F1683       F  0.27924234  0.21279013  0.26659355    -0.13200
F1684       F  0.29318562  0.22752581  0.25309931    -0.15600
F1685       F  0.30799900  0.18369666  0.26394189    -0.15600
F1686       F  0.32286335  0.19919199  0.25197476    -0.13200
C1687       C  0.38289422  0.25077816  0.14344439     0.24800
C1688       C  0.39241632  0.24408134  0.14738883    -0.23300
C1689       C  0.39249084  0.23857063  0.16176656     0.19700
C1690       C  0.38316264  0.23957736  0.17181489     0.24700
C1691       C  0.37359094  0.24620568  0.16777095    -0.23300
C1692       C  0.37363675  0.25184480  0.15348532     0.19600
F1693       F  0.36455431  0.25817146  0.14893239    -0.13200
F1694       F  0.38258066  0.25650415  0.12990392    -0.15600
F1695       F  0.38361296  0.23421883  0.18561878    -0.15600
F1696       F  0.40144280  0.23191904  0.16594112    -0.13200
C1697       C  0.28277506  0.28437778  0.83084138     0.24800
C1698       C  0.29415004  0.28645652  0.82667447    -0.23300
C1699       C  0.29739893  0.29763067  0.82283240     0.19700
C1700       C  0.28919788  0.30636973  0.82214155     0.24700
C1701       C  0.27768951  0.30398805  0.82516182    -0.23300
C1702       C  0.27462066  0.29301106  0.82991291     0.19600
F1703       F  0.26362044  0.29058094  0.83336232    -0.13200
F1704       F  0.27948249  0.27387786  0.83556777    -0.15600
F1705       F  0.29234113  0.31692132  0.81745177    -0.15600
F1706       F  0.30829407  0.29991590  0.81869285    -0.13200
C1707       C  0.30836909  0.19793213  0.76566159     0.24800
C1708       C  0.30239281  0.20322574  0.77779026    -0.23300
C1709       C  0.29046838  0.20214826  0.77826306     0.19700
C1710       C  0.28456420  0.19710223  0.76611075     0.24700
C1711       C  0.29042236  0.19273155  0.75326756    -0.23300
C1712       C  0.30241817  0.19267672  0.75351177     0.19600
F1713       F  0.30836913  0.18830272  0.74149179    -0.13200
F1714       F  0.31989033  0.19853973  0.76496316    -0.15600
F1715       F  0.27302474  0.19669466  0.76682304    -0.15600
F1716       F  0.28443346  0.20626113  0.79039257    -0.13200
C1717       C  0.41523838  0.23311523  0.00222158     0.24800
C1718       C  0.42327711  0.23958843  0.99402372    -0.23300
C1719       C  0.43056988  0.24687379  0.00223507     0.19700
C1720       C  0.43041791  0.24708053  0.01828406     0.24700
C1721       C  0.42299539  0.24000145  0.02653620    -0.23300
C1722       C  0.41510957  0.23331142  0.01839467     0.19600
F1723       F  0.40783379  0.22639215  0.02606383    -0.13200
F1724       F  0.40804363  0.22603300  0.99465316    -0.15600
F1725       F  0.43767127  0.25413652  0.02581413    -0.15600
F1726       F  0.43796149  0.25376510  0.99471379    -0.13200
C1727       C  0.39032077  0.24518319  0.86295846     0.24800
C1728       C  0.39095260  0.23648414  0.87402516    -0.23300
C1729       C  0.38209924  0.22846912  0.87482780     0.19700
C1730       C  0.37285024  0.22906857  0.86464495     0.24700
C1731       C  0.37208876  0.23792239  0.85381283    -0.23300
C1732       C  0.38088504  0.24601094  0.85312945     0.19600
F1733       F  0.38038486  0.25468502  0.84284543    -0.13200
F1734       F  0.39864249  0.25314696  0.86205008    -0.15600
F1735       F  0.36440753  0.22125175  0.86579126    -0.15600
F1736       F  0.38246040  0.21997506  0.88538900    -0.13200
C1737       C  0.25199246  0.00165211  0.40868979     0.24800
C1738       C  0.25957774  0.99592224  0.39885538    -0.23300
C1739       C  0.26563535  0.00223203  0.38782239     0.19700
C1740       C  0.26476871  0.01420124  0.38751529     0.24700
C1741       C  0.25778264  0.01994138  0.39819012    -0.23300
C1742       C  0.25105307  0.01348815  0.40830137     0.19600
F1743       F  0.24380225  0.01869170  0.41826738    -0.13200
F1744       F  0.24573993  0.99578360  0.41912962    -0.15600
F1745       F  0.27143480  0.02017845  0.37769074    -0.15600
F1746       F  0.27307515  0.99691708  0.37824286    -0.13200
C1747       C  0.25779026  0.89211503  0.35117180     0.24800
C1748       C  0.26642214  0.88377838  0.35048080    -0.23300
C1749       C  0.27637924  0.88537383  0.35921732     0.19700
C1750       C  0.27749082  0.89490308  0.36885888     0.24700
C1751       C  0.26880373  0.90316755  0.36964032    -0.23300
C1752       C  0.25903268  0.90177602  0.36050271     0.19600
F1753       F  0.25046867  0.90956107  0.36104815    -0.13200
F1754       F  0.24817015  0.89097978  0.34266256    -0.15600
F1755       F  0.28711926  0.89611536  0.37733611    -0.15600
F1756       F  0.28486247  0.87749582  0.35887518    -0.13200
C1757       C  0.25887090  0.00222878  0.59776168     0.24800
C1758       C  0.26532818  0.99695209  0.60934585    -0.23300
C1759       C  0.27000863  0.00368897  0.62113197     0.19700
C1760       C  0.26900853  0.01563693  0.62055953     0.24700
C1761       C  0.26330103  0.02090923  0.60820194    -0.23300
C1762       C  0.25784771  0.01403217  0.59720939     0.19600
F1763       F  0.25169892  0.01875034  0.58561414    -0.13200
F1764       F  0.25377397  0.99592767  0.58662064    -0.15600
F1765       F  0.27430844  0.02202827  0.63140734    -0.15600
F1766       F  0.27622585  0.99879096  0.63251293    -0.13200
C1767       C  0.28377001  0.94398894  0.51317022     0.24800
C1768       C  0.27744862  0.93594364  0.52156008    -0.23300
C1769       C  0.27121914  0.92764500  0.51346378     0.19700
C1770       C  0.27087977  0.92777501  0.49731323     0.24700
C1771       C  0.27676221  0.93619629  0.48904896    -0.23300
C1772       C  0.28338157  0.94414152  0.49714019     0.19600
F1773       F  0.28946979  0.95215277  0.48950186    -0.13200
F1774       F  0.29032323  0.95181371  0.52047980    -0.15600
F1775       F  0.26419659  0.92016191  0.48982796    -0.15600
F1776       F  0.26487223  0.91987703  0.52114629    -0.13200
C1777       C  0.25544455  0.89493136  0.66217997     0.24800
C1778       C  0.26383702  0.88636673  0.66307811    -0.23300
C1779       C  0.27352810  0.88719678  0.65364212     0.19700
C1780       C  0.27464216  0.89623179  0.64321941     0.24700
C1781       C  0.26622088  0.90474785  0.64227477    -0.23300
C1782       C  0.25671558  0.90412963  0.65205915     0.19600
F1783       F  0.24847013  0.91225110  0.65148280    -0.13200
F1784       F  0.24606046  0.89447327  0.67126406    -0.15600
F1785       F  0.28406097  0.89676780  0.63420767    -0.15600
F1786       F  0.28173996  0.87904185  0.65410686    -0.13200
C1787       C  0.31610130  0.81195939  0.25986845     0.24800
C1788       C  0.31236526  0.80637762  0.24650226    -0.23300
C1789       C  0.30122876  0.80830156  0.24125061     0.19700
C1790       C  0.29369872  0.81509269  0.24968718     0.24700
C1791       C  0.29706727  0.81997199  0.26377510    -0.23300
C1792       C  0.30849774  0.81870188  0.26849146     0.19600
F1793       F  0.31211516  0.82328546  0.28195636    -0.13200
F1794       F  0.32684407  0.81022994  0.26514638    -0.15600
F1795       F  0.28301007  0.81671247  0.24414688    -0.15600
F1796       F  0.29751750  0.80326485  0.22811139    -0.13200
C1797       C  0.38637330  0.78561822  0.14286932     0.24800
C1798       C  0.39486750  0.77720674  0.14143614    -0.23300
C1799       C  0.39430713  0.76747369  0.15081715     0.19700
C1800       C  0.38517588  0.76599816  0.16102377     0.24700
C1801       C  0.37664444  0.77437990  0.16233966    -0.23300
C1802       C  0.37743010  0.78428415  0.15335872     0.19600
F1803       F  0.36930300  0.79250294  0.15434212    -0.13200
F1804       F  0.38681317  0.79522500  0.13422855    -0.15600
F1805       F  0.38472608  0.75643927  0.16976121    -0.15600
F1806       F  0.40237939  0.75920919  0.14971431    -0.13200
C1807       C  0.29531334  0.81158203  0.77529921     0.24800
C1808       C  0.30700957  0.80995995  0.77264667    -0.23300
C1809       C  0.31218392  0.81580984  0.76039232     0.19700
C1810       C  0.30553859  0.82241641  0.75023985     0.24700
C1811       C  0.29365347  0.82320412  0.75223480    -0.23300
C1812       C  0.28873005  0.81809107  0.76524209     0.19600
F1813       F  0.27740133  0.81913340  0.76804908    -0.13200
F1814       F  0.29013589  0.80654342  0.78746856    -0.15600
F1815       F  0.31057887  0.82728386  0.73785803    -0.15600
F1816       F  0.32346394  0.81442023  0.75754471    -0.13200
C1817       C  0.43092980  0.79965139  0.99636638     0.24800
C1818       C  0.42475889  0.79107212  0.98879376    -0.23300
C1819       C  0.41769513  0.78390376  0.99754230     0.19700
C1820       C  0.41730407  0.78493331  0.01364153     0.24700
C1821       C  0.42398670  0.79314017  0.02124370    -0.23300
C1822       C  0.43052915  0.80068905  0.01236286     0.19600
F1823       F  0.43666228  0.80907101  0.01919298    -0.13200
F1824       F  0.43742544  0.80706571  0.98826474    -0.15600
F1825       F  0.41098737  0.77741131  0.02180501    -0.15600
F1826       F  0.41175339  0.77541992  0.99064273    -0.13200
C1827       C  0.38441522  0.78346559  0.87103230     0.24800
C1828       C  0.39321534  0.77530479  0.87056953    -0.23300
C1829       C  0.39251571  0.76630639  0.85992546     0.19700
C1830       C  0.38308475  0.76538685  0.85010966     0.24700
C1831       C  0.37437074  0.77363416  0.85046415    -0.23300
C1832       C  0.37516089  0.78271920  0.86093334     0.19600
F1833       F  0.36676330  0.79067218  0.86175180    -0.13200
F1834       F  0.38485249  0.79228355  0.88112821    -0.15600
F1835       F  0.38252819  0.75651366  0.84011204    -0.15600
F1836       F  0.40077251  0.75819535  0.85938771    -0.13200
C1837       C  0.20980859  0.78874360  0.31589771     0.24800
C1838       C  0.19826918  0.79175425  0.31723407    -0.23300
C1839       C  0.19530883  0.80329778  0.31909576     0.19700
C1840       C  0.20374639  0.81175108  0.31845381     0.24700
C1841       C  0.21521605  0.80870464  0.31607988    -0.23300
C1842       C  0.21818299  0.79710691  0.31543630     0.19600
F1843       F  0.22924794  0.79383404  0.31423648    -0.13200
F1844       F  0.21299340  0.77764067  0.31484311    -0.15600
F1845       F  0.20063138  0.82288361  0.31916147    -0.15600
F1846       F  0.18422115  0.80642738  0.32049206    -0.13200
C1847       C  0.12272191  0.74566780  0.36760461     0.24800
C1848       C  0.12236263  0.74164655  0.35234396    -0.23300
C1849       C  0.11240794  0.73615404  0.34720810     0.19700
C1850       C  0.10299790  0.73491085  0.35700330     0.24700
C1851       C  0.10332962  0.73908073  0.37218395    -0.23300
C1852       C  0.11334197  0.74441982  0.37736840     0.19600
F1853       F  0.11401740  0.74872443  0.39183359    -0.13200
F1854       F  0.13226124  0.75062501  0.37328780    -0.15600
F1855       F  0.09365610  0.72938570  0.35169545    -0.15600
F1856       F  0.11162870  0.73220785  0.33257408    -0.13200
C1857       C  0.19562486  0.80287931  0.69062159     0.24800
C1858       C  0.19914202  0.79157039  0.68790738    -0.23300
C1859       C  0.21078724  0.78933471  0.68554829     0.19700
C1860       C  0.21882810  0.79796669  0.68718216     0.24700
C1861       C  0.21543023  0.80910939  0.69095032    -0.23300
C1862       C  0.20373310  0.81160754  0.69209276     0.19600
F1863       F  0.20020826  0.82230222  0.69570784    -0.13200
F1864       F  0.18445795  0.80535365  0.69291570    -0.15600
F1865       F  0.23001540  0.79537178  0.68527463    -0.15600
F1866       F  0.21444644  0.77868666  0.68188813    -0.13200
C1867       C  0.06426456  0.71786877  0.51463645     0.24800
C1868       C  0.07084356  0.72594983  0.52256958    -0.23300
C1869       C  0.07826056  0.73298037  0.51416205     0.19700
C1870       C  0.07844722  0.73249220  0.49804620     0.24700
C1871       C  0.07120993  0.72497830  0.49010889    -0.23300
C1872       C  0.06444463  0.71738948  0.49859000     0.19600
F1873       F  0.05784456  0.70958638  0.49131550    -0.13200
F1874       F  0.05752102  0.71049383  0.52242746    -0.15600
F1875       F  0.08507363  0.73995401  0.49023409    -0.15600
F1876       F  0.08471478  0.74090208  0.52142668    -0.13200
C1877       C  0.10295415  0.75100111  0.65101225     0.24800
C1878       C  0.10197578  0.74200777  0.64042379    -0.23300
C1879       C  0.11042585  0.73347855  0.64013670     0.19700
C1880       C  0.11972405  0.73397889  0.65020445     0.24700
C1881       C  0.12089167  0.74318600  0.66042834    -0.23300
C1882       C  0.11239765  0.75165349  0.66079909     0.19600
F1883       F  0.11322853  0.76055469  0.67071262    -0.13200
F1884       F  0.09500750  0.75941844  0.65144372    -0.15600
F1885       F  0.12782480  0.72571745  0.64949429    -0.15600
F1886       F  0.10964055  0.72460379  0.63016873    -0.13200
C1887       C  0.29028974  0.70830507  0.19092609     0.24800
C1888       C  0.27895741  0.71192817  0.19334195    -0.23300
C1889       C  0.27684996  0.72367590  0.19522289     0.19700
C1890       C  0.28581017  0.73146020  0.19567940     0.24700
C1891       C  0.29715512  0.72780199  0.19404103    -0.23300
C1892       C  0.29929837  0.71619092  0.19119306     0.19600
F1893       F  0.31015171  0.71237729  0.18954663    -0.13200
F1894       F  0.29274954  0.69708580  0.18909725    -0.15600
F1895       F  0.28333996  0.74267371  0.19767035    -0.15600
F1896       F  0.26606201  0.72774830  0.19649199    -0.13200
C1897       C  0.18824151  0.69675029  0.24848161     0.24800
C1898       C  0.19420903  0.70161033  0.23611015    -0.23300
C1899       C  0.19247009  0.71318899  0.23275058     0.19700
C1900       C  0.18553512  0.71995299  0.24210196     0.24700
C1901       C  0.18038548  0.71540130  0.25534777    -0.23300
C1902       C  0.18140792  0.70360786  0.25809349     0.19600
F1903       F  0.17653574  0.69886847  0.27068528    -0.13200
F1904       F  0.18975578  0.68559409  0.25201074    -0.15600
F1905       F  0.18411930  0.73109599  0.23837768    -0.15600
F1906       F  0.19780053  0.71808066  0.22059381    -0.13200
C1907       C  0.23144220  0.50417580  0.11996659     0.24800
C1908       C  0.22516167  0.49782195  0.10917476    -0.23300
C1909       C  0.21773142  0.50360364  0.09917416     0.19700
C1910       C  0.21739576  0.51548910  0.09890321     0.24700
C1911       C  0.22442543  0.52190418  0.10870370    -0.23300
C1912       C  0.23105871  0.51616574  0.11974886     0.19600
F1913       F  0.23787343  0.52212477  0.12943382    -0.13200
F1914       F  0.23863237  0.49883883  0.12984454    -0.15600
F1915       F  0.21044622  0.52075545  0.08863067    -0.15600
F1916       F  0.21101416  0.49771671  0.08926592    -0.13200
C1917       C  0.22391664  0.61563481  0.15148090     0.24800
C1918       C  0.22957971  0.61564582  0.13720536    -0.23300
C1919       C  0.23601106  0.62529277  0.13317722     0.19700
C1920       C  0.23681177  0.63463512  0.14314830     0.24700
C1921       C  0.23116067  0.63465628  0.15744795    -0.23300
C1922       C  0.22466283  0.62503727  0.16145589     0.19600
F1923       F  0.21921177  0.62458747  0.17519528    -0.13200
F1924       F  0.21740740  0.60663178  0.15566522    -0.15600
F1925       F  0.24294258  0.64378800  0.13853410    -0.15600
F1926       F  0.24179391  0.62564048  0.11967547    -0.13200
C1927       C  0.27589501  0.72119743  0.82134017     0.24800
C1928       C  0.27917001  0.70974374  0.81964261    -0.23300
C1929       C  0.29082433  0.70694806  0.81971974     0.19700
C1930       C  0.29906573  0.71558483  0.82036656     0.24700
C1931       C  0.29572346  0.72710768  0.82097235    -0.23300
C1932       C  0.28406740  0.72976515  0.82210173     0.19600
F1933       F  0.28053969  0.74072211  0.82379601    -0.13200
F1934       F  0.26471538  0.72413617  0.82208371    -0.15600
F1935       F  0.31024419  0.71271593  0.81936274    -0.15600
F1936       F  0.29422583  0.69595393  0.81808322    -0.13200
C1937       C  0.18992096  0.69757472  0.76177737     0.24800
C1938       C  0.20161506  0.69564823  0.75927037    -0.23300
C1939       C  0.20664834  0.69991952  0.74579334     0.19700
C1940       C  0.20039586  0.70661881  0.73560296     0.24700
C1941       C  0.18891092  0.70917745  0.73852695    -0.23300
C1942       C  0.18359573  0.70431565  0.75144467     0.19600
F1943       F  0.17255019  0.70677672  0.75466250    -0.13200
F1944       F  0.18483751  0.69366332  0.77473786    -0.15600
F1945       F  0.20568219  0.71082337  0.72294923    -0.15600
F1946       F  0.21778037  0.69782253  0.74261520    -0.13200
C1947       C  0.23714194  0.51244545  0.88845060     0.24800
C1948       C  0.24389940  0.51895403  0.89850993    -0.23300
C1949       C  0.25170418  0.51328704  0.90811658     0.19700
C1950       C  0.25212991  0.50141884  0.90858473     0.24700
C1951       C  0.24468866  0.49483106  0.89955460    -0.23300
C1952       C  0.23750602  0.50046334  0.88899027     0.19600
F1953       F  0.23028141  0.49445097  0.87993703    -0.13200
F1954       F  0.22960459  0.51763535  0.87890594    -0.15600
F1955       F  0.25977355  0.49638383  0.91813872    -0.15600
F1956       F  0.25884537  0.51925928  0.91736521    -0.13200
C1957       C  0.22785826  0.58985750  0.99291713     0.24800
C1958       C  0.23574776  0.58270776  0.98537938    -0.23300
C1959       C  0.24348729  0.57636393  0.99431876     0.19700
C1960       C  0.24277123  0.57641590  0.01032413     0.24700
C1961       C  0.23443529  0.58295687  0.01785993    -0.23300
C1962       C  0.22724710  0.59001771  0.00907277     0.19600
F1963       F  0.21913551  0.59646386  0.01604975    -0.13200
F1964       F  0.22025817  0.59610269  0.98470293    -0.15600
F1965       F  0.25021061  0.56993316  0.01849247    -0.15600
F1966       F  0.25174410  0.56996705  0.98756402    -0.13200
C1967       C  0.23987153  0.61176453  0.85265140     0.24800
C1968       C  0.23106056  0.61061454  0.86348745    -0.23300
C1969       C  0.22260894  0.61912110  0.86432710     0.19700
C1970       C  0.22305837  0.62868453  0.85471997     0.24700
C1971       C  0.23214949  0.63008863  0.84441100    -0.23300
C1972       C  0.24052299  0.62152202  0.84339797     0.19600
F1973       F  0.24935980  0.62262713  0.83345628    -0.13200
F1974       F  0.24815917  0.60371781  0.85154256    -0.15600
F1975       F  0.21490511  0.63685247  0.85603137    -0.15600
F1976       F  0.21390929  0.61818027  0.87451429    -0.13200
C1977       C  0.50448016  0.77570858  0.11392943     0.24800
C1978       C  0.51074798  0.78509279  0.10856075    -0.23300
C1979       C  0.50491509  0.79516377  0.10474028     0.19700
C1980       C  0.49303432  0.79560834  0.10511442     0.24700
C1981       C  0.48667423  0.78598651  0.10933616    -0.23300
C1982       C  0.49249625  0.77615650  0.11433182     0.19600
F1983       F  0.48659995  0.76671496  0.11842276    -0.13200
F1984       F  0.50988289  0.76584786  0.11762022    -0.15600
F1985       F  0.48770899  0.80540718  0.10092247    -0.15600
F1986       F  0.51075540  0.80452799  0.10017772    -0.13200
C1987       C  0.61442919  0.76704715  0.15529858     0.24800
C1988       C  0.62213674  0.77611359  0.15717098    -0.23300
C1989       C  0.62040310  0.78617844  0.14872215     0.19700
C1990       C  0.61124416  0.78709659  0.13847126     0.24700
C1991       C  0.60349019  0.77809181  0.13676779    -0.23300
C1992       C  0.60511368  0.76809014  0.14532583     0.19600
F1993       F  0.59789189  0.75917490  0.14362415    -0.13200
F1994       F  0.61582665  0.75720431  0.16325867    -0.15600
F1995       F  0.60987739  0.79684738  0.13029920    -0.15600
F1996       F  0.62781481  0.79497735  0.14993652    -0.13200
C1997       C  0.50401594  0.79583629  0.90317499     0.24800
C1998       C  0.51017914  0.78704782  0.89593705    -0.23300
C1999       C  0.50412174  0.77866208  0.88773725     0.19700
C2000       C  0.49211364  0.77850034  0.88810294     0.24700
C2001       C  0.48604747  0.78673251  0.89665533    -0.23300
C2002       C  0.49214533  0.79569552  0.90350266     0.19600
F2003       F  0.48660572  0.80425615  0.91092776    -0.13200
F2004       F  0.50951831  0.80449032  0.91036735    -0.15600
F2005       F  0.48650607  0.76985142  0.88107239    -0.15600
F2006       F  0.50978606  0.77017081  0.88036098    -0.13200
C2007       C  0.56657448  0.80040466  0.99335884     0.24800
C2008       C  0.57303509  0.79217138  0.98543236    -0.23300
C2009       C  0.58023268  0.78489584  0.99389869     0.19700
C2010       C  0.58026966  0.78529650  0.01004881     0.24700
C2011       C  0.57309102  0.79295554  0.01794149    -0.23300
C2012       C  0.56657439  0.80076826  0.00941000     0.19600
F2013       F  0.56004931  0.80870269  0.01663859    -0.13200
F2014       F  0.56011961  0.80806784  0.98554212    -0.15600
F2015       F  0.58669697  0.77765090  0.01792856    -0.15600
F2016       F  0.58662620  0.77687633  0.98664120    -0.13200
C2017       C  0.61229808  0.78590737  0.86667808     0.24800
C2018       C  0.60321588  0.77813488  0.86595896    -0.23300
C2019       C  0.60357566  0.76937840  0.85491053     0.19700
C2020       C  0.61295678  0.76827618  0.84500753     0.24700
C2021       C  0.62199538  0.77610619  0.84568041    -0.23300
C2022       C  0.62149762  0.78500794  0.85648562     0.19600
F2023       F  0.63013784  0.79261453  0.85756644    -0.13200
F2024       F  0.61221570  0.79448600  0.87716066    -0.15600
F2025       F  0.61314341  0.75962859  0.83462818    -0.15600
F2026       F  0.59504081  0.76163656  0.85407902    -0.13200
C2027       C  0.69152121  0.82490577  0.25515140     0.24800
C2028       C  0.69708606  0.81984638  0.26773909    -0.23300
C2029       C  0.69485747  0.80843121  0.27127763     0.19700
C2030       C  0.68795512  0.80188117  0.26173693     0.24700
C2031       C  0.68326892  0.80653810  0.24821811    -0.23300
C2032       C  0.68464300  0.81827214  0.24539118     0.19600
F2033       F  0.68007070  0.82311951  0.23264207    -0.13200
F2034       F  0.69343001  0.83599875  0.25165948    -0.15600
F2035       F  0.68614453  0.79082422  0.26553612    -0.15600
F2036       F  0.69971717  0.80348754  0.28378344    -0.13200
C2037       C  0.73590113  0.90296101  0.35752306     0.24800
C2038       C  0.72738508  0.90336979  0.36887488    -0.23300
C2039       C  0.72014227  0.89394472  0.37072478     0.19700
C2040       C  0.72139625  0.88429918  0.36138240     0.24700
C2041       C  0.73011401  0.88378976  0.35035439    -0.23300
C2042       C  0.73735244  0.89317968  0.34848609     0.19600
F2043       F  0.74575236  0.89291769  0.33777035    -0.13200
F2044       F  0.74311810  0.91184577  0.35559774    -0.15600
F2045       F  0.71433841  0.87529672  0.36345167    -0.15600
F2046       F  0.71178716  0.89410864  0.38151074    -0.13200
C2047       C  0.74308029  0.94168739  0.51062752     0.24800
C2048       C  0.73651088  0.93442254  0.51991064    -0.23300
C2049       C  0.72914937  0.92660392  0.51269801     0.19700
C2050       C  0.72769495  0.92678797  0.49662179     0.24700
C2051       C  0.73358668  0.93478264  0.48758988    -0.23300
C2052       C  0.74162717  0.94186672  0.49471280     0.19600
F2053       F  0.74806367  0.94910292  0.48623562    -0.13200
F2054       F  0.75088085  0.94878587  0.51697609    -0.15600
F2055       F  0.71999986  0.91968739  0.49004740    -0.15600
F2056       F  0.72282093  0.91931600  0.52122408    -0.13200
C2057       C  0.70032443  0.82605317  0.76537032     0.24800
C2058       C  0.70124815  0.82610991  0.74925892    -0.23300
C2059       C  0.69446148  0.81864630  0.74058762     0.19700
C2060       C  0.68734975  0.81079358  0.74798962     0.24700
C2061       C  0.68666169  0.81054154  0.76413785    -0.23300
C2062       C  0.69295651  0.81845620  0.77274495     0.19600
F2063       F  0.69260354  0.81826751  0.78834388    -0.13200
F2064       F  0.70690226  0.83308718  0.77398692    -0.15600
F2065       F  0.68137806  0.80320597  0.73942012    -0.15600
F2066       F  0.69532997  0.81841181  0.72502318    -0.13200
C2067       C  0.72865580  0.88939964  0.65482675     0.24800
C2068       C  0.73828663  0.88768575  0.66421056    -0.23300
C2069       C  0.74744385  0.89535811  0.66298439     0.19700
C2070       C  0.74700641  0.90446755  0.65256958     0.24700
C2071       C  0.73756378  0.90590867  0.64283494    -0.23300
C2072       C  0.72837370  0.89832986  0.64410646     0.19600
F2073       F  0.71904282  0.89966918  0.63506576    -0.13200
F2074       F  0.71966539  0.88219602  0.65562489    -0.15600
F2075       F  0.75598522  0.91168216  0.65165507    -0.15600
F2076       F  0.75678474  0.89414571  0.67203656    -0.13200
C2077       C  0.99094717  0.72652237  0.40746522     0.24800
C2078       C  0.98571580  0.73521347  0.39892517    -0.23300
C2079       C  0.99245583  0.74218233  0.38949626     0.19700
C2080       C  0.00439489  0.74110450  0.38971973     0.24700
C2081       C  0.00965930  0.73298667  0.39932872    -0.23300
C2082       C  0.00275143  0.72532025  0.40750875     0.19600
F2083       F  0.00744381  0.71682604  0.41601447    -0.13200
F2084       F  0.98461350  0.71944276  0.41632689    -0.15600
F2085       F  0.01076833  0.74855193  0.38151707    -0.15600
F2086       F  0.98756160  0.75062285  0.38111432    -0.13200
C2087       C  0.79903472  0.80020364  0.31812526     0.24800
C2088       C  0.79549402  0.78880991  0.31964438    -0.23300
C2089       C  0.78384368  0.78653176  0.32165271     0.19700
C2090       C  0.77582935  0.79529432  0.32098536     0.24700
C2091       C  0.77924460  0.80658034  0.31842785    -0.23300
C2092       C  0.79093944  0.80905383  0.31756160     0.19600
F2093       F  0.79447410  0.81990219  0.31518535    -0.13200
F2094       F  0.81021851  0.80270100  0.31621177    -0.15600
F2095       F  0.76464460  0.79270746  0.32271693    -0.15600
F2096       F  0.78015352  0.77575007  0.32417509    -0.13200
C2097       C  0.89234446  0.73431675  0.35706150     0.24800
C2098       C  0.89238122  0.73983061  0.37146137    -0.23300
C2099       C  0.88265790  0.74602917  0.37594621     0.19700
C2100       C  0.87308357  0.74659158  0.36641251     0.24700
C2101       C  0.87293777  0.74094708  0.35211500    -0.23300
C2102       C  0.88268167  0.73479271  0.34753826     0.19600
F2103       F  0.88296004  0.72943580  0.33370082    -0.13200
F2104       F  0.90154903  0.72822569  0.35234522    -0.15600
F2105       F  0.86382018  0.75245373  0.37143743    -0.15600
F2106       F  0.88247089  0.75180342  0.38948040    -0.13200
C2107       C  0.98981839  0.73187360  0.60654493     0.24800
C2108       C  0.98492931  0.74123596  0.61414063    -0.23300
C2109       C  0.99203445  0.74882447  0.62212782     0.19700
C2110       C  0.00394740  0.74748820  0.62158596     0.24700
C2111       C  0.00886382  0.73851818  0.61303454    -0.23300
C2112       C  0.00162094  0.73043465  0.60617819     0.19600
F2113       F  0.00597866  0.72123290  0.59872348    -0.13200
F2114       F  0.98313951  0.72433041  0.59890585    -0.15600
F2115       F  0.01062691  0.75542104  0.62843778    -0.15600
F2116       F  0.98748782  0.75798551  0.62945587    -0.13200
C2117       C  0.91852002  0.73577078  0.51516986     0.24800
C2118       C  0.92507683  0.74388727  0.52314325    -0.23300
C2119       C  0.93141112  0.75183359  0.51460577     0.19700
C2120       C  0.93176349  0.75125305  0.49857964     0.24700
C2121       C  0.92561039  0.74286055  0.49061583    -0.23300
C2122       C  0.91874613  0.73530419  0.49902295     0.19600
F2123       F  0.91280001  0.72703280  0.49167683    -0.13200
F2124       F  0.91240825  0.72787825  0.52296822    -0.15600
F2125       F  0.93813242  0.75898081  0.49083194    -0.15600
F2126       F  0.93727929  0.76025785  0.52176169    -0.13200
C2127       C  0.79113256  0.79339862  0.71467684     0.24800
C2128       C  0.80235909  0.79616913  0.71051464    -0.23300
C2129       C  0.80478743  0.80738511  0.70595975     0.19700
C2130       C  0.79622761  0.81576975  0.70615689     0.24700
C2131       C  0.78508797  0.81306385  0.71089094    -0.23300
C2132       C  0.78261710  0.80172057  0.71485956     0.19600
F2133       F  0.77186254  0.79854757  0.71857111    -0.13200
F2134       F  0.78827841  0.78251951  0.71822556    -0.15600
F2135       F  0.79896380  0.82661720  0.70231977    -0.15600
F2136       F  0.81553957  0.81034127  0.70192602    -0.13200
C2137       C  0.88154791  0.75010355  0.66343901     0.24800
C2138       C  0.87220693  0.74275184  0.66169184    -0.23300
C2139       C  0.87274089  0.73411834  0.65049403     0.19700
C2140       C  0.88229674  0.73309087  0.64089537     0.24700
C2141       C  0.89162032  0.74050973  0.64256119    -0.23300
C2142       C  0.89120000  0.74891975  0.65409744     0.19600
F2143       F  0.89994398  0.75632138  0.65595039    -0.13200
F2144       F  0.88137723  0.75840458  0.67432324    -0.15600
F2145       F  0.88246695  0.72476866  0.63004388    -0.15600
F2146       F  0.86382397  0.72694951  0.64844257    -0.13200
C2147       C  0.71977777  0.72371952  0.18904759     0.24800
C2148       C  0.71709010  0.71205031  0.18917879    -0.23300
C2149       C  0.70558189  0.70878370  0.18824682     0.19700
C2150       C  0.69692828  0.71705447  0.18819991     0.24700
C2151       C  0.69967142  0.72866521  0.18931034    -0.23300
C2152       C  0.71116696  0.73192151  0.18918311     0.19600
F2153       F  0.71408940  0.74310269  0.18932315    -0.13200
F2154       F  0.73077414  0.72724170  0.18887929    -0.15600
F2155       F  0.68588726  0.71368421  0.18812630    -0.15600
F2156       F  0.70265906  0.69761498  0.18841812    -0.13200
C2157       C  0.80097006  0.68989241  0.25690719     0.24800
C2158       C  0.79710072  0.69549571  0.24358567    -0.23300
C2159       C  0.79993063  0.70700649  0.24142856     0.19700
C2160       C  0.80572220  0.71303804  0.25280761     0.24700
C2161       C  0.80891916  0.70770341  0.26661148    -0.23300
C2162       C  0.80687403  0.69597317  0.26836948     0.19600
F2163       F  0.80974367  0.69064677  0.28166143    -0.13200
F2164       F  0.79821332  0.67883508  0.25940348    -0.15600
F2165       F  0.80786555  0.72426972  0.25053789    -0.15600
F2166       F  0.79667133  0.71257668  0.22846845    -0.13200
C2167       C  0.75591701  0.63335213  0.14264568     0.24800
C2168       C  0.76148043  0.63287894  0.15700951    -0.23300
C2169       C  0.76747351  0.62286901  0.16085413     0.19700
C2170       C  0.76779459  0.61356070  0.15069307     0.24700
C2171       C  0.76218066  0.61403419  0.13637807    -0.23300
C2172       C  0.75623338  0.62406678  0.13252119     0.19600
F2173       F  0.75045632  0.62486545  0.11904406    -0.13200
F2174       F  0.75034526  0.64292096  0.13811474    -0.15600
F2175       F  0.77384920  0.60417987  0.15477957    -0.15600
F2176       F  0.77284837  0.62194650  0.17460972    -0.13200
C2177       C  0.77319455  0.58968658  0.99266753     0.24800
C2178       C  0.76849824  0.58068282  0.98411132    -0.23300
C2179       C  0.76254393  0.57205076  0.99181708     0.19700
C2180       C  0.76180965  0.57206025  0.00781474     0.24700
C2181       C  0.76703886  0.58069050  0.01650451    -0.23300
C2182       C  0.77247307  0.58969281  0.00879193     0.19600
F2183       F  0.77767778  0.59809786  0.01685922    -0.13200
F2184       F  0.77906636  0.59807921  0.98549820    -0.15600
F2185       F  0.75596812  0.56356861  0.01482496    -0.15600
F2186       F  0.75741430  0.56354715  0.98382895    -0.13200
C2187       C  0.70470331  0.70880909  0.81622327     0.24800
C2188       C  0.70953488  0.70503863  0.80226810    -0.23300
C2189       C  0.70586677  0.71014201  0.78846902     0.19700
C2190       C  0.69830195  0.71932313  0.78867055     0.24700
C2191       C  0.69394479  0.72350894  0.80263072    -0.23300
C2192       C  0.69691634  0.71791723  0.81638126     0.19600
F2193       F  0.69281879  0.72166212  0.83008265    -0.13200
F2194       F  0.70793466  0.70414391  0.82981078    -0.15600
F2195       F  0.69519299  0.72408203  0.77507984    -0.15600
F2196       F  0.70956578  0.70625192  0.77463215    -0.13200
C2197       C  0.80103405  0.69412785  0.75384740     0.24800
C2198       C  0.79110983  0.69802959  0.76120703    -0.23300
C2199       C  0.78851541  0.70972651  0.76074795     0.19700
C2200       C  0.79542208  0.71729915  0.75272647     0.24700
C2201       C  0.80540016  0.71348821  0.74526040    -0.23300
C2202       C  0.80811662  0.70177385  0.74593746     0.19600
F2203       F  0.81767017  0.69768569  0.73909412    -0.13200
F2204       F  0.80369872  0.68287282  0.75390584    -0.15600
F2205       F  0.79199123  0.72832726  0.75192949    -0.15600
F2206       F  0.77927481  0.71395288  0.76824766    -0.13200
C2207       C  0.75447957  0.63131384  0.85892337     0.24800
C2208       C  0.75979797  0.63114605  0.84441349    -0.23300
C2209       C  0.76586201  0.62132403  0.83995103     0.19700
C2210       C  0.76669755  0.61194324  0.84986211     0.24700
C2211       C  0.76151578  0.61220616  0.86446905    -0.23300
C2212       C  0.75529846  0.62196798  0.86878525     0.19600
F2213       F  0.74982479  0.62246281  0.88251743    -0.13200
F2214       F  0.74872830  0.64067616  0.86386316    -0.15600
F2215       F  0.77287936  0.60275578  0.84530293    -0.15600
F2216       F  0.77083209  0.62069494  0.82588678    -0.13200
C2217       C  0.99273832  0.27408305  0.38474516     0.24800
C2218       C  0.98610317  0.28190396  0.39316096    -0.23300
C2219       C  0.99149642  0.29113775  0.40036266     0.19700
C2220       C  0.00333380  0.29198173  0.40042968     0.24700
C2221       C  0.01009887  0.28355558  0.39337101    -0.23300
C2222       C  0.00469550  0.27489760  0.38485405     0.19600
F2223       F  0.01095153  0.26669760  0.37775413    -0.13200
F2224       F  0.98773640  0.26513391  0.37756055    -0.15600
F2225       F  0.00819884  0.30086408  0.40795044    -0.15600
F2226       F  0.98527475  0.29913450  0.40795589    -0.13200
C2227       C  0.88400973  0.27618015  0.34275203     0.24800
C2228       C  0.87393669  0.27070761  0.34731675    -0.23300
C2229       C  0.87352666  0.26557022  0.36191278     0.19700
C2230       C  0.88295974  0.26587998  0.37170383     0.24700
C2231       C  0.89304570  0.27143175  0.36722981    -0.23300
C2232       C  0.89345753  0.27655119  0.35258981     0.19600
F2233       F  0.90289012  0.28218562  0.34786534    -0.13200
F2234       F  0.88481473  0.28099251  0.32861598    -0.15600
F2235       F  0.88222132  0.26050721  0.38547045    -0.15600
F2236       F  0.86387366  0.26047429  0.36696941    -0.13200
C2237       C  0.99163627  0.28447971  0.61990822     0.24800
C2238       C  0.98527644  0.29115085  0.60953473    -0.23300
C2239       C  0.99106987  0.29896297  0.60013732     0.19700
C2240       C  0.00293670  0.29931751  0.59997912     0.24700
C2241       C  0.00938101  0.29183666  0.60917156    -0.23300
C2242       C  0.00362387  0.28481007  0.61971913     0.19600
F2243       F  0.00954340  0.27763805  0.62899215    -0.13200
F2244       F  0.98632281  0.27700637  0.62935274    -0.15600
F2245       F  0.00812923  0.30682561  0.59043580    -0.15600
F2246       F  0.98523283  0.30608464  0.59067150    -0.13200
C2247       C  0.91714560  0.28100056  0.51004899     0.24800
C2248       C  0.92625277  0.27653156  0.51869499    -0.23300
C2249       C  0.93519127  0.27094212  0.51097066     0.19700
C2250       C  0.93543055  0.27047897  0.49496418     0.24700
C2251       C  0.92668129  0.27549439  0.48624105    -0.23300
C2252       C  0.91735229  0.28046948  0.49391385     0.19600
F2253       F  0.90878920  0.28542394  0.48581996    -0.13200
F2254       F  0.90840174  0.28648028  0.51712647    -0.15600
F2255       F  0.94427807  0.26507427  0.48799849    -0.15600
F2256       F  0.94377514  0.26589105  0.51892577    -0.13200
C2257       C  0.87258316  0.27115946  0.64192505     0.24800
C2258       C  0.87313161  0.27468617  0.65735199    -0.23300
C2259       C  0.88330772  0.27948581  0.66283588     0.19700
C2260       C  0.89275547  0.28069886  0.65310208     0.24700
C2261       C  0.89225699  0.27710286  0.63762140    -0.23300
C2262       C  0.88200490  0.27227123  0.63223022     0.19600
F2263       F  0.88104449  0.26833294  0.61762048    -0.13200
F2264       F  0.86279313  0.26686952  0.63601225    -0.15600
F2265       F  0.90228308  0.28562141  0.65884554    -0.15600
F2266       F  0.88421181  0.28280248  0.67774492    -0.13200
C2267       C  0.79746960  0.31606756  0.27481443     0.24800
C2268       C  0.80892664  0.31303973  0.27242643    -0.23300
C2269       C  0.81475756  0.31770141  0.25978119     0.19700
C2270       C  0.80882666  0.32418337  0.24877845     0.24700
C2271       C  0.79703308  0.32596961  0.25031895    -0.23300
C2272       C  0.79159227  0.32245775  0.26387789     0.19600
F2273       F  0.78036381  0.32469625  0.26614731    -0.13200
F2274       F  0.79176602  0.31232575  0.28740439    -0.15600
F2275       F  0.81435759  0.32775413  0.23597434    -0.15600
F2276       F  0.82587109  0.31509707  0.25729023    -0.13200
C2277       C  0.78166865  0.51507665  0.10221930     0.24800
C2278       C  0.77251808  0.52084082  0.10916980    -0.23300
C2279       C  0.76443500  0.51448481  0.11745208     0.19700
C2280       C  0.76491525  0.50247536  0.11740583     0.24700
C2281       C  0.77352550  0.49673450  0.10913691    -0.23300
C2282       C  0.78221182  0.50321055  0.10229181     0.19600
F2283       F  0.79113196  0.49803032  0.09518726    -0.13200
F2284       F  0.78995315  0.52096338  0.09482810    -0.15600
F2285       F  0.75651581  0.49651505  0.12441625    -0.15600
F2286       F  0.75560538  0.51982917  0.12452317    -0.13200
C2287       C  0.76009337  0.40229421  0.14683405     0.24800
C2288       C  0.76945489  0.40340797  0.13688545    -0.23300
C2289       C  0.77803764  0.39500978  0.13711391     0.19700
C2290       C  0.77726861  0.38568476  0.14710772     0.24700
C2291       C  0.76775874  0.38442489  0.15675785    -0.23300
C2292       C  0.75916723  0.39280188  0.15650852     0.19600
F2293       F  0.74991767  0.39185624  0.16577108    -0.13200
F2294       F  0.75162716  0.41019354  0.14678671    -0.15600
F2295       F  0.78561901  0.37765954  0.14693835    -0.15600
F2296       F  0.78725321  0.39590181  0.12778112    -0.13200
C2297       C  0.80605272  0.32062069  0.76119183     0.24800
C2298       C  0.79444747  0.32282896  0.75845511    -0.23300
C2299       C  0.78968781  0.31978475  0.74422546     0.19700
C2300       C  0.79612823  0.31382745  0.73341071     0.24700
C2301       C  0.80746387  0.31076884  0.73660503    -0.23300
C2302       C  0.81254061  0.31459441  0.75030231     0.19600
F2303       F  0.82341522  0.31160312  0.75375758    -0.13200
F2304       F  0.81082053  0.32338272  0.77491013    -0.15600
F2305       F  0.79110888  0.31057922  0.72003885    -0.15600
F2306       F  0.77862777  0.32221601  0.74100997    -0.13200
C2307       C  0.78588298  0.50254034  0.90079794     0.24800
C2308       C  0.77743424  0.49608263  0.89340060    -0.23300
C2309       C  0.76908244  0.50178445  0.88466514     0.19700
C2310       C  0.76856375  0.51376633  0.88466659     0.24700
C2311       C  0.77637819  0.52012830  0.89342599    -0.23300
C2312       C  0.78531967  0.51438860  0.90089329     0.19600
F2313       F  0.79337570  0.52026090  0.90878206    -0.13200
F2314       F  0.79453870  0.49736031  0.90846322    -0.15600
F2315       F  0.75990844  0.51906234  0.87717098    -0.15600
F2316       F  0.76090999  0.49580932  0.87717083    -0.13200
C2317       C  0.79114437  0.44244178  0.99383592     0.24800
C2318       C  0.78324624  0.43573100  0.98574066    -0.23300
C2319       C  0.77596818  0.42852523  0.99407282     0.19700
C2320       C  0.77617111  0.42849363  0.01020551     0.24700
C2321       C  0.78366949  0.43565384  0.01830085    -0.23300
C2322       C  0.79135253  0.44240768  0.00992698     0.19600
F2323       F  0.79903638  0.44906907  0.01733000    -0.13200
F2324       F  0.79864964  0.44911343  0.98615267    -0.15600
F2325       F  0.76846837  0.42205806  0.01787440    -0.15600
F2326       F  0.76810242  0.42209637  0.98666578    -0.13200
C2327       C  0.77590622  0.39483440  0.86727826     0.24800
C2328       C  0.76742318  0.40331680  0.86757035    -0.23300
C2329       C  0.75801989  0.40235143  0.85766058     0.19700
C2330       C  0.75694262  0.39286739  0.84798267     0.24700
C2331       C  0.76541106  0.38437443  0.84773803    -0.23300
C2332       C  0.77499646  0.38553207  0.85727350     0.19600
F2333       F  0.78326805  0.37742572  0.85735434    -0.13200
F2334       F  0.78514833  0.39561344  0.87659220    -0.15600
F2335       F  0.74766224  0.39201291  0.83874692    -0.15600
F2336       F  0.74966446  0.41036913  0.85776865    -0.13200
C2337       C  0.77226106  0.22563708  0.32591115     0.24800
C2338       C  0.77485834  0.21409939  0.32329158    -0.23300
C2339       C  0.78626608  0.21085734  0.32097066     0.19700
C2340       C  0.79483273  0.21912692  0.32035487     0.24700
C2341       C  0.79209813  0.23073521  0.32210878    -0.23300
C2342       C  0.78078900  0.23385855  0.32538233     0.19600
F2343       F  0.77794392  0.24491443  0.32798641    -0.13200
F2344       F  0.76139773  0.22899667  0.32882831    -0.15600
F2345       F  0.80564197  0.21584285  0.31699868    -0.15600
F2346       F  0.78902021  0.19980751  0.31820247    -0.13200
C2347       C  0.71034742  0.01364757  0.40344169     0.24800
C2348       C  0.71804404  0.02036656  0.39506609    -0.23300
C2349       C  0.72656798  0.01491664  0.38632839     0.19700
C2350       C  0.72787846  0.00299508  0.38698202     0.24700
C2351       C  0.72072470  0.99644328  0.39644437    -0.23300
C2352       C  0.71172111  0.00185256  0.40421220     0.19600
F2353       F  0.70444942  0.99572403  0.41304738    -0.13200
F2354       F  0.70172308  0.01858689  0.41146795    -0.15600
F2355       F  0.73669176  0.99799162  0.37943530    -0.15600
F2356       F  0.73420160  0.02116752  0.37825860    -0.13200
C2357       C  0.72300946  0.12418002  0.34328614     0.24800
C2358       C  0.72960880  0.13353828  0.34812015    -0.23300
C2359       C  0.73495027  0.13297039  0.36261539     0.19700
C2360       C  0.73380525  0.12334194  0.37192340     0.24700
C2361       C  0.72709322  0.11405381  0.36720590    -0.23300
C2362       C  0.72175486  0.11456936  0.35272386     0.19600
F2363       F  0.71505200  0.10590684  0.34780997    -0.13200
F2364       F  0.71787678  0.12420175  0.32930835    -0.15600
F2365       F  0.73949871  0.12308808  0.38550260    -0.15600
F2366       F  0.74106187  0.14186897  0.36813357    -0.13200
C2367       C  0.78644764  0.21068594  0.68400924     0.24800
C2368       C  0.77485217  0.21360227  0.68517335    -0.23300
C2369       C  0.77171625  0.22516728  0.68460005     0.19700
C2370       C  0.77999502  0.23364688  0.68368530     0.24700
C2371       C  0.79165463  0.23080029  0.68353730    -0.23300
C2372       C  0.79478727  0.21921264  0.68322116     0.19600
F2373       F  0.80592542  0.21611238  0.68314961    -0.13200
F2374       F  0.78977077  0.19961815  0.68467918    -0.15600
F2375       F  0.77654926  0.24468773  0.68301639    -0.15600
F2376       F  0.76058198  0.22831277  0.68498701    -0.13200
C2377       C  0.74811470  0.01620723  0.59959198     0.24800
C2378       C  0.73996074  0.02196332  0.60856190    -0.23300
C2379       C  0.73311244  0.01561801  0.61867749     0.19700
C2380       C  0.73373356  0.00363319  0.61873757     0.24700
C2381       C  0.74120978  0.99789443  0.60868125    -0.23300
C2382       C  0.74871712  0.00433272  0.59963246     0.19600
F2383       F  0.75645908  0.99908497  0.59041272    -0.13200
F2384       F  0.75530740  0.02209910  0.59035248    -0.15600
F2385       F  0.72641651  0.99765977  0.62767895    -0.15600
F2386       F  0.72520927  0.02093429  0.62755542    -0.13200
C2387       C  0.71634705  0.07459157  0.51160493     0.24800
C2388       C  0.72382463  0.08226245  0.51873528    -0.23300
C2389       C  0.72987459  0.09003699  0.50961799     0.19700
C2390       C  0.72898943  0.08963503  0.49351149     0.24700
C2391       C  0.72192182  0.08152459  0.48633533    -0.23300
C2392       C  0.71532510  0.07428636  0.49562655     0.19600
F2393       F  0.70785070  0.06684627  0.48927537    -0.13200
F2394       F  0.71005924  0.06727300  0.52016030    -0.15600
F2395       F  0.73556887  0.09669547  0.48498428    -0.15600
F2396       F  0.73720298  0.09749481  0.51623329    -0.13200
C2397       C  0.71915792  0.12249051  0.63877682     0.24800
C2398       C  0.72771409  0.11408549  0.63945200    -0.23300
C2399       C  0.73645508  0.11520721  0.65040292     0.19700
C2400       C  0.73695996  0.12485408  0.65991544     0.24700
C2401       C  0.72855273  0.13338973  0.65897974    -0.23300
C2402       C  0.71947180  0.13196188  0.64862176     0.19600
F2403       F  0.71117910  0.14000248  0.64751668    -0.13200
F2404       F  0.71047384  0.12152295  0.62856033    -0.15600
F2405       F  0.74567844  0.12586340  0.67007320    -0.15600
F2406       F  0.74481436  0.10722983  0.65140358    -0.13200
C2407       C  0.70162975  0.30019567  0.18360403     0.24800
C2408       C  0.70488825  0.28869301  0.18225153    -0.23300
C2409       C  0.71652579  0.28594693  0.18122732     0.19700
C2410       C  0.72476118  0.29440255  0.18257903     0.24700
C2411       C  0.72156285  0.30581162  0.18491815    -0.23300
C2412       C  0.70993022  0.30871467  0.18492495     0.19600
F2413       F  0.70659492  0.31966406  0.18723661    -0.13200
F2414       F  0.69046776  0.30311359  0.18470989    -0.15600
F2415       F  0.73591733  0.29139929  0.18169279    -0.15600
F2416       F  0.71996819  0.27500579  0.17908186    -0.13200
C2417       C  0.68264066  0.20375499  0.24746167     0.24800
C2418       C  0.68904776  0.20830737  0.23525525    -0.23300
C2419       C  0.70080276  0.20601401  0.23458917     0.19700
C2420       C  0.70621713  0.20023338  0.24652627     0.24700
C2421       C  0.69999487  0.19642570  0.25928360    -0.23300
C2422       C  0.68810533  0.19783539  0.25943567     0.19600
F2423       F  0.68194134  0.19434397  0.27174401    -0.13200
F2424       F  0.67129198  0.20583277  0.24846557    -0.15600
F2425       F  0.71768114  0.19874218  0.24591558    -0.15600
F2426       F  0.70717119  0.20973629  0.22258602    -0.13200
C2427       C  0.50302344  0.24126224  0.12471600     0.24800
C2428       C  0.50897338  0.23328371  0.11565822    -0.23300
C2429       C  0.50288953  0.22448251  0.10846768     0.19700
C2430       C  0.49101987  0.22426567  0.10906731     0.24700
C2431       C  0.48495612  0.23286974  0.11683357    -0.23300
C2432       C  0.49105206  0.24106573  0.12529079     0.19600
F2433       F  0.48543754  0.24945811  0.13293797    -0.13200
F2434       F  0.50870677  0.24981331  0.13185721    -0.15600
F2435       F  0.48540276  0.21588391  0.10145721    -0.15600
F2436       F  0.50845079  0.21632089  0.10028578    -0.13200
C2437       C  0.60356166  0.23805355  0.15338190     0.24800
C2438       C  0.60265038  0.24342737  0.13898679    -0.23300
C2439       C  0.61184712  0.24999021  0.13369419     0.19700
C2440       C  0.62186413  0.25083633  0.14226274     0.24700
C2441       C  0.62292826  0.24528539  0.15653923    -0.23300
C2442       C  0.61359164  0.23897286  0.16207084     0.19600
F2443       F  0.61407877  0.23376645  0.17597478    -0.13200
F2444       F  0.59490559  0.23159694  0.15885646    -0.15600
F2445       F  0.63064790  0.25680495  0.13619513    -0.15600
F2446       F  0.61114275  0.25575559  0.12020707    -0.13200
C2447       C  0.69748562  0.30064002  0.82385277     0.24800
C2448       C  0.70014536  0.28902141  0.82195058    -0.23300
C2449       C  0.71164958  0.28568313  0.82155821     0.19700
C2450       C  0.72028091  0.29380603  0.82174672     0.24700
C2451       C  0.71764077  0.30549195  0.82224422    -0.23300
C2452       C  0.70618547  0.30883338  0.82399780     0.19600
F2453       F  0.70333792  0.32003159  0.82476905    -0.13200
F2454       F  0.68647104  0.30414071  0.82447032    -0.15600
F2455       F  0.73127329  0.29020448  0.82121769    -0.15600
F2456       F  0.71457806  0.27449934  0.82077411    -0.13200
C2457       C  0.69423311  0.20611359  0.76945942     0.24800
C2458       C  0.68332580  0.20998146  0.76536737    -0.23300
C2459       C  0.67872465  0.20674407  0.75109686     0.19700
C2460       C  0.68532118  0.20042661  0.74059635     0.24700
C2461       C  0.69655795  0.19727081  0.74432973    -0.23300
C2462       C  0.70077753  0.19981935  0.75906464     0.19600
F2463       F  0.71145471  0.19657109  0.76319854    -0.13200
F2464       F  0.69875275  0.20888127  0.78334110    -0.15600
F2465       F  0.68110864  0.19828388  0.72635352    -0.15600
F2466       F  0.66825970  0.21052507  0.74682699    -0.13200
C2467       C  0.50238755  0.24906323  0.91019659     0.24800
C2468       C  0.50796646  0.24158922  0.90005662    -0.23300
C2469       C  0.50147142  0.23522831  0.88954040     0.19700
C2470       C  0.48949877  0.23561413  0.89013663     0.24700
C2471       C  0.48395539  0.24234250  0.90130005    -0.23300
C2472       C  0.49052586  0.24950969  0.91072430     0.19600
F2473       F  0.48544242  0.25665582  0.92094058    -0.13200
F2474       F  0.50846344  0.25558118  0.92014311    -0.15600
F2475       F  0.48339558  0.22870801  0.88073640    -0.15600
F2476       F  0.50667652  0.22791676  0.87966617    -0.13200
C2477       C  0.56228332  0.22588336  0.99763324     0.24800
C2478       C  0.56922277  0.23331141  0.98914894    -0.23300
C2479       C  0.57665141  0.24064371  0.99709104     0.19700
C2480       C  0.57658994  0.24099969  0.01324673     0.24700
C2481       C  0.56905754  0.23407062  0.02162575    -0.23300
C2482       C  0.56222861  0.22623633  0.01365258     0.19600
F2483       F  0.55542233  0.21888789  0.02139082    -0.13200
F2484       F  0.55544955  0.21826363  0.99040225    -0.15600
F2485       F  0.58336423  0.24859781  0.02061278    -0.15600
F2486       F  0.58341564  0.24796976  0.98925881    -0.13200
C2487       C  0.60022099  0.23728660  0.85381419     0.24800
C2488       C  0.60073542  0.24142598  0.86900665    -0.23300
C2489       C  0.61060879  0.24717062  0.87381188     0.19700
C2490       C  0.61978263  0.24864593  0.86379416     0.24700
C2491       C  0.61934363  0.24448113  0.84860906    -0.23300
C2492       C  0.60943424  0.23877877  0.84372880     0.19600
F2493       F  0.60855225  0.23480106  0.82911607    -0.13200
F2494       F  0.59092307  0.23153543  0.84880554    -0.15600
F2495       F  0.62924277  0.25388926  0.86922854    -0.15600
F2496       F  0.61135167  0.25162485  0.88818666    -0.13200
loop_ 
_geom_bond_atom_site_label_1 
_geom_bond_atom_site_label_2 
_geom_bond_distance 
_geom_bond_site_symmetry_2 
_ccdc_geom_bond_type 
N1            N2   1.321       .  A
N1            C5   1.353       .  A
N1           Cu9   2.095       .  S
N2            C3   1.339       .  A
N2           Cu8   2.056       .  S
C3            C4   1.379       .  A
C3            H6   1.082       .  S
C4            C5   1.390       .  A
C4         C2468   1.479       .  S
C5            H7   1.082       .  S
Cu8          N11   2.056       .  S
Cu9          N19   2.097       .  S
Cu10         N12   2.083       .  S
Cu10         N18   2.086       .  S
N11          N12   1.319       .  A
N11          C15   1.339       .  A
N12          C13   1.351       .  A
C13          C14   1.390       .  A
C13          H16   1.082       .  S
C14          C15   1.382       .  A
C14        C2478   1.482       .  S
C15          H17   1.082       .  S
N18          N19   1.326       .  A
N18          C22   1.344       .  A
N19          C20   1.349       .  A
C20          C21   1.388       .  A
C20          H23   1.082       .  S
C21          C22   1.385       .  A
C21        C2488   1.488       .  S
C22          H24   1.082       .  S
N25          N26   1.322       .  A
N25          C29   1.353       .  A
N25         Cu33   2.094       .  S
N26          C27   1.340       .  A
N26         Cu32   2.060       .  S
C27          C28   1.378       .  A
C27          H30   1.082       .  S
C28          C29   1.389       .  A
C28        C2458   1.477       .  S
C29          H31   1.082       .  S
Cu32         N35   2.060       .  S
Cu33         N43   2.096       .  S
Cu34         N36   2.086       .  S
Cu34         N42   2.088       .  S
N35          N36   1.320       .  A
N35          C39   1.340       .  A
N36          C37   1.351       .  A
C37          C38   1.390       .  A
C37          H40   1.082       .  S
C38          C39   1.383       .  A
C38        C2448   1.484       .  S
C39          H41   1.082       .  S
N42          N43   1.325       .  A
N42          C46   1.344       .  A
N43          C44   1.349       .  A
C44          C45   1.388       .  A
C44          H47   1.082       .  S
C45          C46   1.387       .  A
C45        C2491   1.490       .  S
C46          H48   1.081       .  S
N49          N50   1.323       .  A
N49          C53   1.352       .  A
N49         Cu57   2.096       .  S
N50          C51   1.340       .  A
N50         Cu56   2.066       .  S
C51          C52   1.380       .  A
C51          H54   1.082       .  S
C52          C53   1.389       .  A
C52        C2428   1.481       .  S
C53          H55   1.082       .  S
Cu56         N59   2.065       .  S
Cu57         N67   2.097       .  S
Cu58         N60   2.071       .  S
Cu58         N66   2.073       .  S
N59          N60   1.319       .  A
N59          C63   1.341       .  A
N60          C61   1.349       .  A
C61          C62   1.388       .  A
C61          H64   1.082       .  S
C62          C63   1.385       .  A
C62        C2481   1.481       .  S
C63          H65   1.082       .  S
N66          N67   1.324       .  A
N66          C70   1.340       .  A
N67          C68   1.351       .  A
C68          C69   1.390       .  A
C68          H71   1.082       .  S
C69          C70   1.382       .  A
C69        C2438   1.486       .  S
C70          H72   1.082       .  S
N73          N74   1.320       .  A
N73          C77   1.352       .  A
N73         Cu81   2.091       .  S
N74          C75   1.338       .  A
N74         Cu80   2.050       .  S
C75          C76   1.381       .  A
C75          H78   1.082       .  S
C76          C77   1.392       .  A
C76        C2418   1.482       .  S
C77          H79   1.082       .  S
Cu80         N83   2.050       .  S
Cu81         N91   2.093       .  S
Cu82         N84   2.081       .  S
Cu82         N90   2.084       .  S
N83          N84   1.319       .  A
N83          C87   1.338       .  A
N84          C85   1.350       .  A
C85          C86   1.390       .  A
C85          H88   1.082       .  S
C86          C87   1.381       .  A
C86        C2408   1.479       .  S
C87          H89   1.082       .  S
N90          N91   1.325       .  A
N90          C94   1.344       .  A
N91          C92   1.347       .  A
C92          C93   1.388       .  A
C92          H95   1.081       .  S
C93          C94   1.387       .  A
C93        C2441   1.490       .  S
C94          H96   1.081       .  S
N97          N98   1.321       .  A
N97         C101   1.354       .  A
N97        Cu105   2.100       .  S
N98          C99   1.340       .  A
N98        Cu104   2.058       .  S
C99         C100   1.381       .  A
C99         H102   1.082       .  S
C100        C101   1.392       .  A
C100       C2378   1.485       .  S
C101        H103   1.082       .  S
Cu104       N107   2.057       .  S
Cu105       N115   2.103       .  S
Cu106       N108   2.091       .  S
Cu106       N114   2.094       .  S
N107        N108   1.321       .  A
N107        C111   1.340       .  A
N108        C109   1.352       .  A
C109        C110   1.389       .  A
C109        H112   1.082       .  S
C110        C111   1.380       .  A
C110       C2388   1.479       .  S
C111        H113   1.082       .  S
N114        N115   1.327       .  A
N114        C118   1.347       .  A
N115        C116   1.350       .  A
C116        C117   1.386       .  A
C116        H119   1.082       .  S
C117        C118   1.384       .  A
C117       C2398   1.485       .  S
C118        H120   1.082       .  S
N121        N122   1.321       .  A
N121        C125   1.353       .  A
N121       Cu129   2.095       .  S
N122        C123   1.340       .  A
N122       Cu128   2.057       .  S
C123        C124   1.380       .  A
C123        H126   1.082       .  S
C124        C125   1.391       .  A
C124       C2461   1.481       .  S
C125        H127   1.082       .  S
Cu128       N131   2.057       .  S
Cu129       N139   2.098       .  S
Cu130       N132   2.092       .  S
Cu130       N138   2.095       .  S
N131        N132   1.320       .  A
N131        C135   1.341       .  A
N132        C133   1.352       .  A
C133        C134   1.392       .  A
C133        H136   1.082       .  S
C134        C135   1.382       .  A
C134       C2368   1.485       .  S
C135        H137   1.082       .  S
N138        N139   1.327       .  A
N138        C142   1.347       .  A
N139        C140   1.349       .  A
C140        C141   1.386       .  A
C140        H143   1.082       .  S
C141        C142   1.384       .  A
C141       C2401   1.484       .  S
C142        H144   1.082       .  S
N145        N146   1.322       .  A
N145        C149   1.355       .  A
N145       Cu153   2.106       .  S
N146        C147   1.338       .  A
N146       Cu152   2.058       .  S
C147        C148   1.379       .  A
C147        H150   1.082       .  S
C148        C149   1.394       .  A
C148       C2348   1.485       .  S
C149        H151   1.082       .  S
Cu152       N155   2.059       .  S
Cu153       N163   2.108       .  S
Cu154       N156   2.078       .  S
Cu154       N162   2.080       .  S
N155        N156   1.318       .  A
N155        C159   1.341       .  A
N156        C157   1.349       .  A
C157        C158   1.391       .  A
C157        H160   1.081       .  S
C158        C159   1.386       .  A
C158       C2391   1.487       .  S
C159        H161   1.081       .  S
N162        N163   1.326       .  A
N162        C166   1.343       .  A
N163        C164   1.351       .  A
C164        C165   1.391       .  A
C164        H167   1.082       .  S
C165        C166   1.384       .  A
C165       C2361   1.491       .  S
C166        H168   1.081       .  S
N169        N170   1.321       .  A
N169        C173   1.352       .  A
N169       Cu177   2.095       .  S
N170        C171   1.339       .  A
N170       Cu176   2.052       .  S
C171        C172   1.378       .  A
C171        H174   1.082       .  S
C172        C173   1.389       .  A
C172       C2421   1.477       .  S
C173        H175   1.082       .  S
Cu176       N179   2.052       .  S
Cu177       N187   2.097       .  S
Cu178       N180   2.081       .  S
Cu178       N186   2.084       .  S
N179        N180   1.320       .  A
N179        C183   1.339       .  A
N180        C181   1.349       .  A
C181        C182   1.389       .  A
C181        H184   1.082       .  S
C182        C183   1.380       .  A
C182       C2338   1.478       .  S
C183        H185   1.082       .  S
N186        N187   1.325       .  A
N186        C190   1.344       .  A
N187        C188   1.349       .  A
C188        C189   1.390       .  A
C188        H191   1.081       .  S
C189        C190   1.387       .  A
C189       C2358   1.494       .  S
C190        H192   1.081       .  S
N193        N194   1.321       .  A
N193        C197   1.353       .  A
N193       Cu201   2.091       .  S
N194        C195   1.337       .  A
N194       Cu200   2.059       .  S
C195        C196   1.381       .  A
C195        H198   1.082       .  S
C196        C197   1.392       .  A
C196       C2308   1.484       .  S
C197        H199   1.082       .  S
Cu200       N203   2.060       .  S
Cu201       N211   2.093       .  S
Cu202       N204   2.086       .  S
Cu202       N210   2.088       .  S
N203        N204   1.319       .  A
N203        C207   1.342       .  A
N204        C205   1.350       .  A
C205        C206   1.391       .  A
C205        H208   1.082       .  S
C206        C207   1.384       .  A
C206       C2318   1.485       .  S
C207        H209   1.082       .  S
N210        N211   1.327       .  A
N210        C214   1.345       .  A
N211        C212   1.348       .  A
C212        C213   1.384       .  A
C212        H215   1.082       .  S
C213        C214   1.382       .  A
C213       C2328   1.479       .  S
C214        H216   1.082       .  S
N217        N218   1.321       .  A
N217        C221   1.350       .  A
N217       Cu225   2.082       .  S
N218        C219   1.340       .  A
N218       Cu224   2.060       .  S
C219        C220   1.381       .  A
C219        H222   1.082       .  S
C220        C221   1.387       .  A
C220       C2298   1.476       .  S
C221        H223   1.082       .  S
Cu224       N227   2.061       .  S
Cu225       N235   2.085       .  S
Cu226       N228   2.082       .  S
Cu226       N234   2.084       .  S
N227        N228   1.320       .  A
N227        C231   1.340       .  A
N228        C229   1.351       .  A
C229        C230   1.390       .  A
C229        H232   1.082       .  S
C230        C231   1.383       .  A
C230       C2451   1.484       .  S
C231        H233   1.082       .  S
N234        N235   1.326       .  A
N234        C238   1.345       .  A
N235        C236   1.347       .  A
C236        C237   1.384       .  A
C236        H239   1.082       .  S
C237        C238   1.382       .  A
C237       C2331   1.478       .  S
C238        H240   1.082       .  S
N241        N242   1.321       .  A
N241        C245   1.356       .  A
N241       Cu249   2.103       .  S
N242        C243   1.338       .  A
N242       Cu248   2.064       .  S
C243        C244   1.382       .  A
C243        H246   1.082       .  S
C244        C245   1.394       .  A
C244       C2281   1.490       .  S
C245        H247   1.082       .  S
Cu248       N251   2.064       .  S
Cu249       N259   2.105       .  S
Cu250       N252   2.087       .  S
Cu250       N258   2.089       .  S
N251        N252   1.319       .  A
N251        C255   1.343       .  A
N252        C253   1.350       .  A
C253        C254   1.391       .  A
C253        H256   1.082       .  S
C254        C255   1.384       .  A
C254       C2321   1.486       .  S
C255        H257   1.082       .  S
N258        N259   1.327       .  A
N258        C262   1.346       .  A
N259        C260   1.349       .  A
C260        C261   1.387       .  A
C260        H263   1.082       .  S
C261        C262   1.383       .  A
C261       C2288   1.484       .  S
C262        H264   1.082       .  S
N265        N266   1.322       .  A
N265        C269   1.353       .  A
N265       Cu273   2.093       .  S
N266        C267   1.339       .  A
N266       Cu272   2.060       .  S
C267        C268   1.380       .  A
C267        H270   1.082       .  S
C268        C269   1.390       .  A
C268       C2271   1.480       .  S
C269        H271   1.082       .  S
Cu272       N275   2.060       .  S
Cu273       N283   2.096       .  S
Cu274       N276   2.079       .  S
Cu274       N282   2.082       .  S
N275        N276   1.320       .  A
N275        C279   1.341       .  A
N276        C277   1.349       .  A
C277        C278   1.387       .  A
C277        H280   1.082       .  S
C278        C279   1.383       .  A
C278       C2411   1.478       .  S
C279        H281   1.082       .  S
N282        N283   1.326       .  A
N282        C286   1.346       .  A
N283        C284   1.348       .  A
C284        C285   1.386       .  A
C284        H287   1.082       .  S
C285        C286   1.383       .  A
C285       C2291   1.482       .  S
C286        H288   1.082       .  S
N289        N290   1.320       .  A
N289        C293   1.352       .  A
N289       Cu297   2.087       .  S
N290        C291   1.336       .  A
N290       Cu296   2.046       .  S
C291        C292   1.377       .  A
C291        H294   1.082       .  S
C292        C293   1.390       .  A
C292       C2301   1.476       .  S
C293        H295   1.082       .  S
Cu296       N299   2.047       .  S
Cu297       N307   2.091       .  S
Cu298       N300   2.089       .  S
Cu298       N306   2.092       .  S
N299        N300   1.318       .  A
N299        C303   1.339       .  A
N300        C301   1.351       .  A
C301        C302   1.394       .  A
C301        H304   1.082       .  S
C302        C303   1.383       .  A
C302       C2371   1.487       .  S
C303        H305   1.082       .  S
N306        N307   1.327       .  A
N306        C310   1.345       .  A
N307        C308   1.348       .  A
C308        C309   1.386       .  A
C308        H311   1.082       .  S
C309        C310   1.385       .  A
C309       C2258   1.485       .  S
C310        H312   1.082       .  S
N313        N314   1.321       .  A
N313        C317   1.355       .  A
N313       Cu321   2.106       .  S
N314        C315   1.338       .  A
N314       Cu320   2.053       .  S
C315        C316   1.380       .  A
C315        H318   1.082       .  S
C316        C317   1.395       .  A
C316       C2238   1.488       .  S
C317        H319   1.082       .  S
Cu320       N323   2.052       .  S
Cu321       N331   2.109       .  S
Cu322       N324   2.078       .  S
Cu322       N330   2.082       .  S
N323        N324   1.318       .  A
N323        C327   1.339       .  A
N324        C325   1.350       .  A
C325        C326   1.391       .  A
C325        H328   1.082       .  S
C326        C327   1.382       .  A
C326       C2248   1.482       .  S
C327        H329   1.082       .  S
N330        N331   1.325       .  A
N330        C334   1.342       .  A
N331        C332   1.350       .  A
C332        C333   1.393       .  A
C332        H335   1.081       .  S
C333        C334   1.386       .  A
C333       C2261   1.496       .  S
C334        H336   1.080       .  S
N337        N338   1.321       .  A
N337        C341   1.352       .  A
N337       Cu345   2.092       .  S
N338        C339   1.338       .  A
N338       Cu344   2.058       .  S
C339        C340   1.381       .  A
C339        H342   1.082       .  S
C340        C341   1.391       .  A
C340       C2268   1.482       .  S
C341        H343   1.082       .  S
Cu344       N347   2.058       .  S
Cu345       N355   2.094       .  S
Cu346       N348   2.070       .  S
Cu346       N354   2.072       .  S
N347        N348   1.319       .  A
N347        C351   1.340       .  A
N348        C349   1.347       .  A
C349        C350   1.387       .  A
C349        H352   1.082       .  S
C350        C351   1.383       .  A
C350       C2341   1.479       .  S
C351        H353   1.082       .  S
N354        N355   1.325       .  A
N354        C358   1.343       .  A
N355        C356   1.348       .  A
C356        C357   1.388       .  A
C356        H359   1.082       .  S
C357        C358   1.383       .  A
C357       C2228   1.484       .  S
C358        H360   1.082       .  S
N361        N362   1.321       .  A
N361        C365   1.354       .  A
N361       Cu369   2.096       .  S
N362        C363   1.338       .  A
N362       Cu368   2.058       .  S
C363        C364   1.380       .  A
C363        H366   1.082       .  S
C364        C365   1.391       .  A
C364       C2218   1.481       .  S
C365        H367   1.082       .  S
Cu368       N371   2.058       .  S
Cu369       N379   2.098       .  S
Cu370       N372   2.074       .  S
Cu370       N378   2.077       .  S
N371        N372   1.319       .  A
N371        C375   1.340       .  A
N372        C373   1.349       .  A
C373        C374   1.388       .  A
C373        H376   1.082       .  S
C374        C375   1.383       .  A
C374       C2251   1.481       .  S
C375        H377   1.082       .  S
N378        N379   1.325       .  A
N378        C382   1.343       .  A
N379        C380   1.348       .  A
C380        C381   1.389       .  A
C380        H383   1.081       .  S
C381        C382   1.385       .  A
C381       C2231   1.489       .  S
C382        H384   1.081       .  S
N385        N386   1.320       .  A
N385        C389   1.354       .  A
N385       Cu393   2.100       .  S
N386        C387   1.337       .  A
N386       Cu392   2.048       .  S
C387        C388   1.379       .  A
C387        H390   1.081       .  S
C388        C389   1.394       .  A
C388       C2198   1.485       .  S
C389        H391   1.082       .  S
Cu392       N395   2.049       .  S
Cu393       N403   2.104       .  S
Cu394       N396   2.074       .  S
Cu394       N402   2.077       .  S
N395        N396   1.316       .  A
N395        C399   1.338       .  A
N396        C397   1.350       .  A
C397        C398   1.394       .  A
C397        H400   1.081       .  S
C398        C399   1.385       .  A
C398       C2188   1.489       .  S
C399        H401   1.081       .  S
N402        N403   1.326       .  A
N402        C406   1.341       .  A
N403        C404   1.350       .  A
C404        C405   1.390       .  A
C404        H407   1.082       .  S
C405        C406   1.382       .  A
C405       C2208   1.486       .  S
C406        H408   1.081       .  S
N409        N410   1.321       .  A
N409        C413   1.353       .  A
N409       Cu417   2.093       .  S
N410        C411   1.338       .  A
N410       Cu416   2.057       .  S
C411        C412   1.381       .  A
C411        H414   1.082       .  S
C412        C413   1.391       .  A
C412       C2311   1.483       .  S
C413        H415   1.082       .  S
Cu416       N419   2.056       .  S
Cu417       N427   2.095       .  S
Cu418       N420   2.077       .  S
Cu418       N426   2.080       .  S
N419        N420   1.319       .  A
N419        C423   1.340       .  A
N420        C421   1.349       .  A
C421        C422   1.388       .  A
C421        H424   1.082       .  S
C422        C423   1.382       .  A
C422       C2178   1.478       .  S
C423        H425   1.082       .  S
N426        N427   1.325       .  A
N426        C430   1.343       .  A
N427        C428   1.348       .  A
C428        C429   1.388       .  A
C428        H431   1.081       .  S
C429        C430   1.384       .  A
C429       C2211   1.487       .  S
C430        H432   1.082       .  S
N433        N434   1.322       .  A
N433        C437   1.355       .  A
N433       Cu441   2.109       .  S
N434        C435   1.337       .  A
N434       Cu440   2.052       .  S
C435        C436   1.377       .  A
C435        H438   1.082       .  S
C436        C437   1.394       .  A
C436       C2158   1.483       .  S
C437        H439   1.082       .  S
Cu440       N443   2.052       .  S
Cu441       N451   2.112       .  S
Cu442       N444   2.076       .  S
Cu442       N450   2.079       .  S
N443        N444   1.318       .  A
N443        C447   1.340       .  A
N444        C445   1.348       .  A
C445        C446   1.390       .  A
C445        H448   1.082       .  S
C446        C447   1.384       .  A
C446       C2148   1.482       .  S
C447        H449   1.082       .  S
N450        N451   1.325       .  A
N450        C454   1.343       .  A
N451        C452   1.352       .  A
C452        C453   1.393       .  A
C452        H455   1.082       .  S
C453        C454   1.384       .  A
C453       C2168   1.494       .  S
C454        H456   1.081       .  S
N457        N458   1.321       .  A
N457        C461   1.355       .  A
N457       Cu465   2.103       .  S
N458        C459   1.340       .  A
N458       Cu464   2.061       .  S
C459        C460   1.381       .  A
C459        H462   1.082       .  S
C460        C461   1.393       .  A
C460       C2278   1.486       .  S
C461        H463   1.082       .  S
Cu464       N467   2.060       .  S
Cu465       N475   2.106       .  S
Cu466       N468   2.085       .  S
Cu466       N474   2.088       .  S
N467        N468   1.320       .  A
N467        C471   1.340       .  A
N468        C469   1.351       .  A
C469        C470   1.389       .  A
C469        H472   1.082       .  S
C470        C471   1.382       .  A
C470       C2181   1.481       .  S
C471        H473   1.082       .  S
N474        N475   1.326       .  A
N474        C478   1.346       .  A
N475        C476   1.349       .  A
C476        C477   1.390       .  A
C476        H479   1.081       .  S
C477        C478   1.387       .  A
C477       C2171   1.494       .  S
C478        H480   1.081       .  S
N481        N482   1.320       .  A
N481        C485   1.351       .  A
N481       Cu489   2.095       .  S
N482        C483   1.340       .  A
N482       Cu488   2.059       .  S
C483        C484   1.386       .  A
C483        H486   1.080       .  S
C484        C485   1.395       .  A
C484       C2201   1.494       .  S
C485        H487   1.081       .  S
Cu488       N491   2.059       .  S
Cu489       N499   2.097       .  S
Cu490       N492   2.083       .  S
Cu490       N498   2.086       .  S
N491        N492   1.320       .  A
N491        C495   1.340       .  A
N492        C493   1.350       .  A
C493        C494   1.390       .  A
C493        H496   1.082       .  S
C494        C495   1.383       .  A
C494       C2128   1.483       .  S
C495        H497   1.082       .  S
N498        N499   1.326       .  A
N498        C502   1.345       .  A
N499        C500   1.349       .  A
C500        C501   1.387       .  A
C500        H503   1.082       .  S
C501        C502   1.383       .  A
C501       C2138   1.484       .  S
C502        H504   1.082       .  S
N505        N506   1.321       .  A
N505        C509   1.354       .  A
N505       Cu513   2.102       .  S
N506        C507   1.341       .  A
N506       Cu512   2.058       .  S
C507        C508   1.379       .  A
C507        H510   1.082       .  S
C508        C509   1.391       .  A
C508       C2108   1.480       .  S
C509        H511   1.082       .  S
Cu512       N515   2.058       .  S
Cu513       N523   2.104       .  S
Cu514       N516   2.089       .  S
Cu514       N522   2.091       .  S
N515        N516   1.320       .  A
N515        C519   1.339       .  A
N516        C517   1.351       .  A
C517        C518   1.392       .  A
C517        H520   1.082       .  S
C518        C519   1.383       .  A
C518       C2118   1.487       .  S
C519        H521   1.082       .  S
N522        N523   1.327       .  A
N522        C526   1.347       .  A
N523        C524   1.349       .  A
C524        C525   1.388       .  A
C524        H527   1.082       .  S
C525        C526   1.384       .  A
C525       C2141   1.488       .  S
C526        H528   1.082       .  S
N529        N530   1.322       .  A
N529        C533   1.354       .  A
N529       Cu537   2.105       .  S
N530        C531   1.339       .  A
N530       Cu536   2.056       .  S
C531        C532   1.379       .  A
C531        H534   1.082       .  S
C532        C533   1.392       .  A
C532       C2161   1.483       .  S
C533        H535   1.082       .  S
Cu536       N539   2.056       .  S
Cu537       N547   2.107       .  S
Cu538       N540   2.081       .  S
Cu538       N546   2.083       .  S
N539        N540   1.319       .  A
N539        C543   1.339       .  A
N540        C541   1.351       .  A
C541        C542   1.390       .  A
C541        H544   1.082       .  S
C542        C543   1.383       .  A
C542       C2088   1.483       .  S
C543        H545   1.082       .  S
N546        N547   1.326       .  A
N546        C550   1.343       .  A
N547        C548   1.351       .  A
C548        C549   1.390       .  A
C548        H551   1.082       .  S
C549        C550   1.383       .  A
C549       C2101   1.489       .  S
C550        H552   1.082       .  S
N553        N554   1.322       .  A
N553        C557   1.353       .  A
N553       Cu561   2.095       .  S
N554        C555   1.338       .  A
N554       Cu560   2.055       .  S
C555        C556   1.378       .  A
C555        H558   1.082       .  S
C556        C557   1.390       .  A
C556       C2078   1.477       .  S
C557        H559   1.082       .  S
Cu560       N563   2.055       .  S
Cu561       N571   2.097       .  S
Cu562       N564   2.089       .  S
Cu562       N570   2.092       .  S
N563        N564   1.319       .  A
N563        C567   1.341       .  A
N564        C565   1.351       .  A
C565        C566   1.391       .  A
C565        H568   1.082       .  S
C566        C567   1.382       .  A
C566       C2121   1.483       .  S
C567        H569   1.082       .  S
N570        N571   1.326       .  A
N570        C574   1.345       .  A
N571        C572   1.350       .  A
C572        C573   1.388       .  A
C572        H575   1.082       .  S
C573        C574   1.385       .  A
C573       C2098   1.489       .  S
C574        H576   1.082       .  S
N577        N578   1.323       .  A
N577        C581   1.352       .  A
N577       Cu585   2.102       .  S
N578        C579   1.343       .  A
N578       Cu584   2.066       .  S
C579        C580   1.379       .  A
C579        H582   1.082       .  S
C580        C581   1.389       .  A
C580       C2058   1.479       .  S
C581        H583   1.082       .  S
Cu584       N587   2.066       .  S
Cu585       N595   2.103       .  S
Cu586       N588   2.085       .  S
Cu586       N594   2.087       .  S
N587        N588   1.320       .  A
N587        C591   1.343       .  A
N588        C589   1.349       .  A
C589        C590   1.390       .  A
C589        H592   1.082       .  S
C590        C591   1.386       .  A
C590       C2131   1.487       .  S
C591        H593   1.081       .  S
N594        N595   1.325       .  A
N594        C598   1.346       .  A
N595        C596   1.350       .  A
C596        C597   1.390       .  A
C596        H599   1.082       .  S
C597        C598   1.386       .  A
C597       C2068   1.491       .  S
C598        H600   1.082       .  S
N601        N602   1.321       .  A
N601        C605   1.354       .  A
N601       Cu609   2.099       .  S
N602        C603   1.341       .  A
N602       Cu608   2.063       .  S
C603        C604   1.382       .  A
C603        H606   1.082       .  S
C604        C605   1.392       .  A
C604       C2381   1.485       .  S
C605        H607   1.082       .  S
Cu608       N611   2.063       .  S
Cu609       N619   2.102       .  S
Cu610       N612   2.099       .  S
Cu610       N618   2.102       .  S
N611        N612   1.320       .  A
N611        C615   1.340       .  A
N612        C613   1.354       .  A
C613        C614   1.394       .  A
C613        H616   1.082       .  S
C614        C615   1.383       .  A
C614       C2048   1.489       .  S
C615        H617   1.082       .  S
N618        N619   1.328       .  A
N618        C622   1.348       .  A
N619        C620   1.350       .  A
C620        C621   1.385       .  A
C620        H623   1.082       .  S
C621        C622   1.385       .  A
C621       C2071   1.485       .  S
C622        H624   1.082       .  S
N625        N626   1.321       .  A
N625        C629   1.351       .  A
N625       Cu633   2.080       .  S
N626        C627   1.340       .  A
N626       Cu632   2.065       .  S
C627        C628   1.381       .  A
C627        H630   1.082       .  S
C628        C629   1.387       .  A
C628       C2028   1.476       .  S
C629        H631   1.082       .  S
Cu632       N635   2.064       .  S
Cu633       N643   2.082       .  S
Cu634       N636   2.086       .  S
Cu634       N642   2.089       .  S
N635        N636   1.321       .  A
N635        C639   1.340       .  A
N636        C637   1.351       .  A
C637        C638   1.388       .  A
C637        H640   1.082       .  S
C638        C639   1.382       .  A
C638       C2091   1.480       .  S
C639        H641   1.082       .  S
N642        N643   1.326       .  A
N642        C646   1.346       .  A
N643        C644   1.346       .  A
C644        C645   1.381       .  A
C644        H647   1.082       .  S
C645        C646   1.383       .  A
C645       C2041   1.475       .  S
C646        H648   1.082       .  S
N649        N650   1.323       .  A
N649        C653   1.353       .  A
N649       Cu657   2.097       .  S
N650        C651   1.341       .  A
N650       Cu656   2.071       .  S
C651        C652   1.381       .  A
C651        H654   1.082       .  S
C652        C653   1.390       .  A
C652       C2351   1.483       .  S
C653        H655   1.082       .  S
Cu656       N659   2.071       .  S
Cu657       N667   2.098       .  S
Cu658       N660   2.077       .  S
Cu658       N666   2.078       .  S
N659        N660   1.320       .  A
N659        C663   1.342       .  A
N660        C661   1.350       .  A
C661        C662   1.388       .  A
C661        H664   1.082       .  S
C662        C663   1.385       .  A
C662       C2051   1.485       .  S
C663        H665   1.082       .  S
N666        N667   1.326       .  A
N666        C670   1.344       .  A
N667        C668   1.349       .  A
C668        C669   1.387       .  A
C668        H671   1.082       .  S
C669        C670   1.380       .  A
C669       C2038   1.480       .  S
C670        H672   1.082       .  S
N673        N674   1.322       .  A
N673        C677   1.356       .  A
N673       Cu681   2.107       .  S
N674        C675   1.339       .  A
N674       Cu680   2.065       .  S
C675        C676   1.382       .  A
C675        H678   1.082       .  S
C676        C677   1.394       .  A
C676       C1998   1.490       .  S
C677        H679   1.082       .  S
Cu680       N683   2.065       .  S
Cu681       N691   2.109       .  S
Cu682       N684   2.082       .  S
Cu682       N690   2.085       .  S
N683        N684   1.319       .  A
N683        C687   1.341       .  A
N684        C685   1.351       .  A
C685        C686   1.390       .  A
C685        H688   1.082       .  S
C686        C687   1.384       .  A
C686       C2008   1.485       .  S
C687        H689   1.082       .  S
N690        N691   1.327       .  A
N690        C694   1.345       .  A
N691        C692   1.351       .  A
C692        C693   1.388       .  A
C692        H695   1.082       .  S
C693        C694   1.382       .  A
C693       C2018   1.486       .  S
C694        H696   1.082       .  S
N697        N698   1.323       .  A
N697        C701   1.350       .  A
N697       Cu705   2.097       .  S
N698        C699   1.345       .  A
N698       Cu704   2.072       .  S
C699        C700   1.382       .  A
C699        H702   1.082       .  S
C700        C701   1.388       .  A
C700       C2061   1.480       .  S
C701        H703   1.082       .  S
Cu704       N707   2.073       .  S
Cu705       N715   2.098       .  S
Cu706       N708   2.081       .  S
Cu706       N714   2.082       .  S
N707        N708   1.321       .  A
N707        C711   1.342       .  A
N708        C709   1.349       .  A
C709        C710   1.388       .  A
C709        H712   1.082       .  S
C710        C711   1.385       .  A
C710       C2191   1.485       .  S
C711        H713   1.082       .  S
N714        N715   1.325       .  A
N714        C718   1.347       .  A
N715        C716   1.349       .  A
C716        C717   1.388       .  A
C716        H719   1.082       .  S
C717        C718   1.384       .  A
C717       C2021   1.485       .  S
C718        H720   1.082       .  S
N721        N722   1.320       .  A
N721        C725   1.354       .  A
N721       Cu729   2.099       .  S
N722        C723   1.337       .  A
N722       Cu728   2.052       .  S
C723        C724   1.381       .  A
C723        H726   1.082       .  S
C724        C725   1.394       .  A
C724       C2031   1.486       .  S
C725        H727   1.082       .  S
Cu728       N731   2.051       .  S
Cu729       N739   2.102       .  S
Cu730       N732   2.074       .  S
Cu730       N738   2.077       .  S
N731        N732   1.319       .  A
N731        C735   1.339       .  A
N732        C733   1.349       .  A
C733        C734   1.388       .  A
C733        H736   1.082       .  S
C734        C735   1.381       .  A
C734       C2151   1.477       .  S
C735        H737   1.082       .  S
N738        N739   1.326       .  A
N738        C742   1.344       .  A
N739        C740   1.349       .  A
C740        C741   1.388       .  A
C740        H743   1.082       .  S
C741        C742   1.381       .  A
C741       C1988   1.484       .  S
C742        H744   1.082       .  S
N745        N746   1.323       .  A
N745        C749   1.354       .  A
N745       Cu753   2.101       .  S
N746        C747   1.341       .  A
N746       Cu752   2.071       .  S
C747        C748   1.381       .  A
C747        H750   1.082       .  S
C748        C749   1.391       .  A
C748       C1978   1.484       .  S
C749        H751   1.082       .  S
Cu752       N755   2.070       .  S
Cu753       N763   2.102       .  S
Cu754       N756   2.078       .  S
Cu754       N762   2.080       .  S
N755        N756   1.320       .  A
N755        C759   1.342       .  A
N756        C757   1.349       .  A
C757        C758   1.389       .  A
C757        H760   1.082       .  S
C758        C759   1.385       .  A
C758       C2011   1.484       .  S
C759        H761   1.082       .  S
N762        N763   1.326       .  A
N762        C766   1.345       .  A
N763        C764   1.349       .  A
C764        C765   1.386       .  A
C764        H767   1.082       .  S
C765        C766   1.380       .  A
C765       C1991   1.479       .  S
C766        H768   1.082       .  S
N769        N770   1.321       .  A
N769        C773   1.354       .  A
N769       Cu777   2.103       .  S
N770        C771   1.338       .  A
N770       Cu776   2.053       .  S
C771        C772   1.380       .  A
C771        H774   1.082       .  S
C772        C773   1.394       .  A
C772       C1948   1.487       .  S
C773        H775   1.082       .  S
Cu776       N779   2.053       .  S
Cu777       N787   2.106       .  S
Cu778       N780   2.090       .  S
Cu778       N786   2.093       .  S
N779        N780   1.319       .  A
N779        C783   1.339       .  A
N780        C781   1.352       .  A
C781        C782   1.393       .  A
C781        H784   1.082       .  S
C782        C783   1.383       .  A
C782       C1958   1.487       .  S
C783        H785   1.082       .  S
N786        N787   1.327       .  A
N786        C790   1.345       .  A
N787        C788   1.351       .  A
C788        C789   1.387       .  A
C788        H791   1.082       .  S
C789        C790   1.382       .  A
C789       C1968   1.485       .  S
C790        H792   1.082       .  S
N793        N794   1.321       .  A
N793        C797   1.355       .  A
N793       Cu801   2.101       .  S
N794        C795   1.337       .  A
N794       Cu800   2.052       .  S
C795        C796   1.379       .  A
C795        H798   1.082       .  S
C796        C797   1.394       .  A
C796       C1938   1.484       .  S
C797        H799   1.082       .  S
Cu800       N803   2.052       .  S
Cu801       N811   2.104       .  S
Cu802       N804   2.086       .  S
Cu802       N810   2.090       .  S
N803        N804   1.319       .  A
N803        C807   1.340       .  A
N804        C805   1.351       .  A
C805        C806   1.390       .  A
C805        H808   1.082       .  S
C806        C807   1.381       .  A
C806       C1928   1.480       .  S
C807        H809   1.082       .  S
N810        N811   1.328       .  A
N810        C814   1.346       .  A
N811        C812   1.350       .  A
C812        C813   1.386       .  A
C812        H815   1.082       .  S
C813        C814   1.382       .  A
C813       C1971   1.482       .  S
C814        H816   1.082       .  S
N817        N818   1.322       .  A
N817        C821   1.355       .  A
N817       Cu825   2.106       .  S
N818        C819   1.340       .  A
N818       Cu824   2.061       .  S
C819        C820   1.380       .  A
C819        H822   1.082       .  S
C820        C821   1.393       .  A
C820       C1911   1.485       .  S
C821        H823   1.082       .  S
Cu824       N827   2.061       .  S
Cu825       N835   2.108       .  S
Cu826       N828   2.084       .  S
Cu826       N834   2.087       .  S
N827        N828   1.320       .  A
N827        C831   1.341       .  A
N828        C829   1.351       .  A
C829        C830   1.389       .  A
C829        H832   1.082       .  S
C830        C831   1.383       .  A
C830       C1961   1.482       .  S
C831        H833   1.082       .  S
N834        N835   1.326       .  A
N834        C838   1.345       .  A
N835        C836   1.351       .  A
C836        C837   1.391       .  A
C836        H839   1.082       .  S
C837        C838   1.385       .  A
C837       C1918   1.493       .  S
C838        H840   1.082       .  S
N841        N842   1.322       .  A
N841        C845   1.355       .  A
N841       Cu849   2.107       .  S
N842        C843   1.340       .  A
N842       Cu848   2.063       .  S
C843        C844   1.380       .  A
C843        H846   1.082       .  S
C844        C845   1.393       .  A
C844       C1898   1.485       .  S
C845        H847   1.082       .  S
Cu848       N851   2.064       .  S
Cu849       N859   2.110       .  S
Cu850       N852   2.092       .  S
Cu850       N858   2.094       .  S
N851        N852   1.318       .  A
N851        C855   1.341       .  A
N852        C853   1.352       .  A
C853        C854   1.395       .  A
C853        H856   1.082       .  S
C854        C855   1.387       .  A
C854       C1888   1.495       .  S
C855        H857   1.081       .  S
N858        N859   1.327       .  A
N858        C862   1.345       .  A
N859        C860   1.351       .  A
C860        C861   1.391       .  A
C860        H863   1.082       .  S
C861        C862   1.386       .  A
C861       C1921   1.495       .  S
C862        H864   1.081       .  S
N865        N866   1.322       .  A
N865        C869   1.353       .  A
N865       Cu873   2.096       .  S
N866        C867   1.340       .  A
N866       Cu872   2.070       .  S
C867        C868   1.383       .  A
C867        H870   1.082       .  S
C868        C869   1.393       .  A
C868       C2111   1.489       .  S
C869        H871   1.082       .  S
Cu872       N875   2.069       .  S
Cu873       N883   2.097       .  S
Cu874       N876   2.073       .  S
Cu874       N882   2.076       .  S
N875        N876   1.320       .  A
N875        C879   1.342       .  A
N876        C877   1.348       .  A
C877        C878   1.388       .  A
C877        H880   1.082       .  S
C878        C879   1.385       .  A
C878       C1868   1.482       .  S
C879        H881   1.082       .  S
N882        N883   1.325       .  A
N882        C886   1.344       .  A
N883        C884   1.348       .  A
C884        C885   1.386       .  A
C884        H887   1.082       .  S
C885        C886   1.381       .  A
C885       C1878   1.480       .  S
C886        H888   1.082       .  S
N889        N890   1.321       .  A
N889        C893   1.352       .  A
N889       Cu897   2.090       .  S
N890        C891   1.339       .  A
N890       Cu896   2.059       .  S
C891        C892   1.381       .  A
C891        H894   1.082       .  S
C892        C893   1.390       .  A
C892       C1941   1.482       .  S
C893        H895   1.082       .  S
Cu896       N899   2.059       .  S
Cu897       N907   2.093       .  S
Cu898       N900   2.087       .  S
Cu898       N906   2.089       .  S
N899        N900   1.319       .  A
N899        C903   1.339       .  A
N900        C901   1.352       .  A
C901        C902   1.392       .  A
C901        H904   1.082       .  S
C902        C903   1.382       .  A
C902       C1858   1.485       .  S
C903        H905   1.082       .  S
N906        N907   1.327       .  A
N906        C910   1.345       .  A
N907        C908   1.348       .  A
C908        C909   1.385       .  A
C908        H911   1.082       .  S
C909        C910   1.382       .  A
C909       C1881   1.480       .  S
C910        H912   1.082       .  S
N913        N914   1.322       .  A
N913        C917   1.354       .  A
N913       Cu921   2.099       .  S
N914        C915   1.338       .  A
N914       Cu920   2.060       .  S
C915        C916   1.381       .  A
C915        H918   1.082       .  S
C916        C917   1.393       .  A
C916       C2081   1.486       .  S
C917        H919   1.082       .  S
Cu920       N923   2.060       .  S
Cu921       N931   2.101       .  S
Cu922       N924   2.077       .  S
Cu922       N930   2.079       .  S
N923        N924   1.319       .  A
N923        C927   1.341       .  A
N924        C925   1.348       .  A
C925        C926   1.389       .  A
C925        H928   1.082       .  S
C926        C927   1.384       .  A
C926       C1871   1.482       .  S
C927        H929   1.082       .  S
N930        N931   1.325       .  A
N930        C934   1.343       .  A
N931        C932   1.350       .  A
C932        C933   1.390       .  A
C932        H935   1.082       .  S
C933        C934   1.384       .  A
C933       C1851   1.489       .  S
C934        H936   1.081       .  S
N937        N938   1.320       .  A
N937        C941   1.353       .  A
N937       Cu945   2.099       .  S
N938        C939   1.339       .  A
N938       Cu944   2.059       .  S
C939        C940   1.383       .  A
C939        H942   1.082       .  S
C940        C941   1.395       .  A
C940       C1901   1.490       .  S
C941        H943   1.082       .  S
Cu944       N947   2.059       .  S
Cu945       N955   2.101       .  S
Cu946       N948   2.085       .  S
Cu946       N954   2.088       .  S
N947        N948   1.320       .  A
N947        C951   1.340       .  A
N948        C949   1.351       .  A
C949        C950   1.389       .  A
C949        H952   1.082       .  S
C950        C951   1.381       .  A
C950       C1838   1.479       .  S
C951        H953   1.082       .  S
N954        N955   1.326       .  A
N954        C958   1.345       .  A
N955        C956   1.349       .  A
C956        C957   1.389       .  A
C956        H959   1.081       .  S
C957        C958   1.386       .  A
C957       C1848   1.491       .  S
C958        H960   1.081       .  S
N961        N962   1.322       .  A
N961        C965   1.355       .  A
N961       Cu969   2.101       .  S
N962        C963   1.339       .  A
N962       Cu968   2.067       .  S
C963        C964   1.383       .  A
C963        H966   1.082       .  S
C964        C965   1.394       .  A
C964       C2001   1.490       .  S
C965        H967   1.082       .  S
Cu968       N971   2.067       .  S
Cu969       N979   2.102       .  S
Cu970       N972   2.080       .  S
Cu970       N978   2.083       .  S
N971        N972   1.319       .  A
N971        C975   1.342       .  A
N972        C973   1.350       .  A
C973        C974   1.390       .  A
C973        H976   1.082       .  S
C974        C975   1.385       .  A
C974       C1818   1.485       .  S
C975        H977   1.082       .  S
N978        N979   1.326       .  A
N978        C982   1.345       .  A
N979        C980   1.350       .  A
C980        C981   1.387       .  A
C980        H983   1.082       .  S
C981        C982   1.382       .  A
C981       C1828   1.482       .  S
C982        H984   1.082       .  S
N985        N986   1.321       .  A
N985        C989   1.355       .  A
N985       Cu993   2.101       .  S
N986        C987   1.338       .  A
N986       Cu992   2.057       .  S
C987        C988   1.380       .  A
C987        H990   1.082       .  S
C988        C989   1.393       .  A
C988       C1808   1.485       .  S
C989        H991   1.082       .  S
Cu992       N995   2.057       .  S
Cu993      N1003   2.104       .  S
Cu994       N996   2.081       .  S
Cu994      N1002   2.083       .  S
N995        N996   1.319       .  A
N995        C999   1.339       .  A
N996        C997   1.350       .  A
C997        C998   1.390       .  A
C997       H1000   1.082       .  S
C998        C999   1.383       .  A
C998       C1931   1.483       .  S
C999       H1001   1.082       .  S
N1002      N1003   1.327       .  A
N1002      C1006   1.346       .  A
N1003      C1004   1.348       .  A
C1004      C1005   1.386       .  A
C1004      H1007   1.082       .  S
C1005      C1006   1.381       .  A
C1005      C1831   1.480       .  S
C1006      H1008   1.082       .  S
N1009      N1010   1.322       .  A
N1009      C1013   1.353       .  A
N1009     Cu1017   2.097       .  S
N1010      C1011   1.341       .  A
N1010     Cu1016   2.066       .  S
C1011      C1012   1.382       .  A
C1011      H1014   1.082       .  S
C1012      C1013   1.392       .  A
C1012      C1981   1.486       .  S
C1013      H1015   1.082       .  S
Cu1016     N1019   2.065       .  S
Cu1017     N1027   2.099       .  S
Cu1018     N1020   2.089       .  S
Cu1018     N1026   2.092       .  S
N1019      N1020   1.320       .  A
N1019      C1023   1.341       .  A
N1020      C1021   1.351       .  A
C1021      C1022   1.392       .  A
C1021      H1024   1.082       .  S
C1022      C1023   1.384       .  A
C1022      C1821   1.487       .  S
C1023      H1025   1.082       .  S
N1026      N1027   1.327       .  A
N1026      C1030   1.346       .  A
N1027      C1028   1.349       .  A
C1028      C1029   1.386       .  A
C1028      H1031   1.082       .  S
C1029      C1030   1.384       .  A
C1029      C1798   1.483       .  S
C1030      H1032   1.082       .  S
N1033      N1034   1.321       .  A
N1033      C1037   1.353       .  A
N1033     Cu1041   2.093       .  S
N1034      C1035   1.340       .  A
N1034     Cu1040   2.060       .  S
C1035      C1036   1.379       .  A
C1035      H1038   1.082       .  S
C1036      C1037   1.390       .  A
C1036      C1788   1.478       .  S
C1037      H1039   1.082       .  S
Cu1040     N1043   2.060       .  S
Cu1041     N1051   2.096       .  S
Cu1042     N1044   2.098       .  S
Cu1042     N1050   2.100       .  S
N1043      N1044   1.320       .  A
N1043      C1047   1.341       .  A
N1044      C1045   1.354       .  A
C1045      C1046   1.393       .  A
C1045      H1048   1.082       .  S
C1046      C1047   1.382       .  A
C1046      C1891   1.488       .  S
C1047      H1049   1.082       .  S
N1050      N1051   1.328       .  A
N1050      C1054   1.348       .  A
N1051      C1052   1.348       .  A
C1052      C1053   1.384       .  A
C1052      H1055   1.082       .  S
C1053      C1054   1.384       .  A
C1053      C1801   1.482       .  S
C1054      H1056   1.082       .  S
N1057      N1058   1.321       .  A
N1057      C1061   1.355       .  A
N1057     Cu1065   2.104       .  S
N1058      C1059   1.339       .  A
N1058     Cu1064   2.061       .  S
C1059      C1060   1.381       .  A
C1059      H1062   1.082       .  S
C1060      C1061   1.394       .  A
C1060      C1811   1.488       .  S
C1061      H1063   1.082       .  S
Cu1064     N1067   2.061       .  S
Cu1065     N1075   2.107       .  S
Cu1066     N1068   2.088       .  S
Cu1066     N1074   2.091       .  S
N1067      N1068   1.320       .  A
N1067      C1071   1.341       .  A
N1068      C1069   1.351       .  A
C1069      C1070   1.390       .  A
C1069      H1072   1.082       .  S
C1070      C1071   1.383       .  A
C1070      C1861   1.482       .  S
C1071      H1073   1.082       .  S
N1074      N1075   1.327       .  A
N1074      C1078   1.347       .  A
N1075      C1076   1.350       .  A
C1076      C1077   1.388       .  A
C1076      H1079   1.082       .  S
C1077      C1078   1.383       .  A
C1077      C1778   1.486       .  S
C1078      H1080   1.082       .  S
N1081      N1082   1.320       .  A
N1081      C1085   1.354       .  A
N1081     Cu1089   2.093       .  S
N1082      C1083   1.336       .  A
N1082     Cu1088   2.047       .  S
C1083      C1084   1.379       .  A
C1083      H1086   1.082       .  S
C1084      C1085   1.391       .  A
C1084      C1758   1.479       .  S
C1085      H1087   1.082       .  S
Cu1088     N1091   2.047       .  S
Cu1089     N1099   2.096       .  S
Cu1090     N1092   2.094       .  S
Cu1090     N1098   2.098       .  S
N1091      N1092   1.319       .  A
N1091      C1095   1.338       .  A
N1092      C1093   1.352       .  A
C1093      C1094   1.394       .  A
C1093      H1096   1.082       .  S
C1094      C1095   1.381       .  A
C1094      C1768   1.485       .  S
C1095      H1097   1.082       .  S
N1098      N1099   1.328       .  A
N1098      C1102   1.347       .  A
N1099      C1100   1.348       .  A
C1100      C1101   1.384       .  A
C1100      H1103   1.082       .  S
C1101      C1102   1.384       .  A
C1101      C1781   1.484       .  S
C1102      H1104   1.082       .  S
N1105      N1106   1.321       .  A
N1105      C1109   1.351       .  A
N1105     Cu1113   2.098       .  S
N1106      C1107   1.342       .  A
N1106     Cu1112   2.065       .  S
C1107      C1108   1.385       .  A
C1107      H1110   1.082       .  S
C1108      C1109   1.392       .  A
C1108      C1791   1.490       .  S
C1109      H1111   1.082       .  S
Cu1112     N1115   2.064       .  S
Cu1113     N1123   2.100       .  S
Cu1114     N1116   2.083       .  S
Cu1114     N1122   2.085       .  S
N1115      N1116   1.321       .  A
N1115      C1119   1.340       .  A
N1116      C1117   1.350       .  A
C1117      C1118   1.388       .  A
C1117      H1120   1.082       .  S
C1118      C1119   1.382       .  A
C1118      C1841   1.480       .  S
C1119      H1121   1.082       .  S
N1122      N1123   1.325       .  A
N1122      C1126   1.346       .  A
N1123      C1124   1.349       .  A
C1124      C1125   1.388       .  A
C1124      H1127   1.082       .  S
C1125      C1126   1.385       .  A
C1125      C1748   1.487       .  S
C1126      H1128   1.082       .  S
N1129      N1130   1.321       .  A
N1129      C1133   1.354       .  A
N1129     Cu1137   2.099       .  S
N1130      C1131   1.340       .  A
N1130     Cu1136   2.058       .  S
C1131      C1132   1.380       .  A
C1131      H1134   1.082       .  S
C1132      C1133   1.392       .  A
C1132      C1738   1.482       .  S
C1133      H1135   1.082       .  S
Cu1136     N1139   2.058       .  S
Cu1137     N1147   2.102       .  S
Cu1138     N1140   2.086       .  S
Cu1138     N1146   2.089       .  S
N1139      N1140   1.320       .  A
N1139      C1143   1.340       .  A
N1140      C1141   1.351       .  A
C1141      C1142   1.390       .  A
C1141      H1144   1.082       .  S
C1142      C1143   1.381       .  A
C1142      C1771   1.481       .  S
C1143      H1145   1.082       .  S
N1146      N1147   1.327       .  A
N1146      C1150   1.347       .  A
N1147      C1148   1.348       .  A
C1148      C1149   1.386       .  A
C1148      H1151   1.082       .  S
C1149      C1150   1.383       .  A
C1149      C1751   1.484       .  S
C1150      H1152   1.082       .  S
N1153      N1154   1.322       .  A
N1153      C1157   1.353       .  A
N1153     Cu1161   2.096       .  S
N1154      C1155   1.340       .  A
N1154     Cu1160   2.066       .  S
C1155      C1156   1.382       .  A
C1155      H1158   1.082       .  S
C1156      C1157   1.391       .  A
C1156      C2471   1.484       .  S
C1157      H1159   1.082       .  S
Cu1160     N1163   2.066       .  S
Cu1161     N1171   2.098       .  S
Cu1162     N1164   2.090       .  S
Cu1162     N1170   2.092       .  S
N1163      N1164   1.321       .  A
N1163      C1167   1.342       .  A
N1164      C1165   1.351       .  A
C1165      C1166   1.390       .  A
C1165      H1168   1.082       .  S
C1166      C1167   1.384       .  A
C1166      C1718   1.485       .  S
C1167      H1169   1.082       .  S
N1170      N1171   1.326       .  A
N1170      C1174   1.347       .  A
N1171      C1172   1.349       .  A
C1172      C1173   1.386       .  A
C1172      H1175   1.082       .  S
C1173      C1174   1.384       .  A
C1173      C1728   1.484       .  S
C1174      H1176   1.082       .  S
N1177      N1178   1.320       .  A
N1177      C1181   1.354       .  A
N1177     Cu1185   2.103       .  S
N1178      C1179   1.339       .  A
N1178     Cu1184   2.059       .  S
C1179      C1180   1.383       .  A
C1179      H1182   1.082       .  S
C1180      C1181   1.395       .  A
C1180      C1708   1.491       .  S
C1181      H1183   1.082       .  S
Cu1184     N1187   2.059       .  S
Cu1185     N1195   2.106       .  S
Cu1186     N1188   2.085       .  S
Cu1186     N1194   2.087       .  S
N1187      N1188   1.320       .  A
N1187      C1191   1.339       .  A
N1188      C1189   1.352       .  A
C1189      C1190   1.390       .  A
C1189      H1192   1.082       .  S
C1190      C1191   1.382       .  A
C1190      C1698   1.482       .  S
C1191      H1193   1.082       .  S
N1194      N1195   1.327       .  A
N1194      C1198   1.346       .  A
N1195      C1196   1.350       .  A
C1196      C1197   1.388       .  A
C1196      H1199   1.082       .  S
C1197      C1198   1.382       .  A
C1197      C1731   1.485       .  S
C1198      H1200   1.082       .  S
N1201      N1202   1.322       .  A
N1201      C1205   1.354       .  A
N1201     Cu1209   2.101       .  S
N1202      C1203   1.340       .  A
N1202     Cu1208   2.062       .  S
C1203      C1204   1.380       .  A
C1203      H1206   1.082       .  S
C1204      C1205   1.392       .  A
C1204      C2431   1.483       .  S
C1205      H1207   1.082       .  S
Cu1208     N1211   2.062       .  S
Cu1209     N1219   2.103       .  S
Cu1210     N1212   2.089       .  S
Cu1210     N1218   2.091       .  S
N1211      N1212   1.320       .  A
N1211      C1215   1.341       .  A
N1212      C1213   1.352       .  A
C1213      C1214   1.390       .  A
C1213      H1216   1.082       .  S
C1214      C1215   1.382       .  A
C1214      C1721   1.482       .  S
C1215      H1217   1.082       .  S
N1218      N1219   1.326       .  A
N1218      C1222   1.345       .  A
N1219      C1220   1.351       .  A
C1220      C1221   1.389       .  A
C1220      H1223   1.082       .  S
C1221      C1222   1.386       .  A
C1221      C1688   1.491       .  S
C1222      H1224   1.082       .  S
N1225      N1226   1.321       .  A
N1225      C1229   1.353       .  A
N1225     Cu1233   2.100       .  S
N1226      C1227   1.340       .  A
N1226     Cu1232   2.072       .  S
C1227      C1228   1.386       .  A
C1227      H1230   1.081       .  S
C1228      C1229   1.394       .  A
C1228      C1678   1.495       .  S
C1229      H1231   1.082       .  S
Cu1232     N1235   2.074       .  S
Cu1233     N1243   2.102       .  S
Cu1234     N1236   2.082       .  S
Cu1234     N1242   2.085       .  S
N1235      N1236   1.320       .  A
N1235      C1239   1.344       .  A
N1236      C1237   1.349       .  A
C1237      C1238   1.388       .  A
C1237      H1240   1.082       .  S
C1238      C1239   1.386       .  A
C1238      C1668   1.486       .  S
C1239      H1241   1.082       .  S
N1242      N1243   1.324       .  A
N1242      C1246   1.345       .  A
N1243      C1244   1.350       .  A
C1244      C1245   1.391       .  A
C1244      H1247   1.082       .  S
C1245      C1246   1.386       .  A
C1245      C1691   1.493       .  S
C1246      H1248   1.081       .  S
N1249      N1250   1.321       .  A
N1249      C1253   1.353       .  A
N1249     Cu1257   2.094       .  S
N1250      C1251   1.338       .  A
N1250     Cu1256   2.057       .  S
C1251      C1252   1.381       .  A
C1251      H1254   1.082       .  S
C1252      C1253   1.392       .  A
C1252      C1761   1.484       .  S
C1253      H1255   1.082       .  S
Cu1256     N1259   2.057       .  S
Cu1257     N1267   2.097       .  S
Cu1258     N1260   2.083       .  S
Cu1258     N1266   2.086       .  S
N1259      N1260   1.319       .  A
N1259      C1263   1.339       .  A
N1260      C1261   1.351       .  A
C1261      C1262   1.391       .  A
C1261      H1264   1.082       .  S
C1262      C1263   1.383       .  A
C1262      C1648   1.483       .  S
C1263      H1265   1.082       .  S
N1266      N1267   1.327       .  A
N1266      C1270   1.345       .  A
N1267      C1268   1.349       .  A
C1268      C1269   1.386       .  A
C1268      H1271   1.082       .  S
C1269      C1270   1.381       .  A
C1269      C1658   1.481       .  S
C1270      H1272   1.082       .  S
N1273      N1274   1.322       .  A
N1273      C1277   1.354       .  A
N1273     Cu1281   2.104       .  S
N1274      C1275   1.341       .  A
N1274     Cu1280   2.068       .  S
C1275      C1276   1.383       .  A
C1275      H1278   1.082       .  S
C1276      C1277   1.393       .  A
C1276      C1711   1.490       .  S
C1277      H1279   1.082       .  S
Cu1280     N1283   2.068       .  S
Cu1281     N1291   2.106       .  S
Cu1282     N1284   2.083       .  S
Cu1282     N1290   2.084       .  S
N1283      N1284   1.320       .  A
N1283      C1287   1.341       .  A
N1284      C1285   1.352       .  A
C1285      C1286   1.390       .  A
C1285      H1288   1.082       .  S
C1286      C1287   1.383       .  A
C1286      C1638   1.483       .  S
C1287      H1289   1.082       .  S
N1290      N1291   1.327       .  A
N1290      C1294   1.344       .  A
N1291      C1292   1.351       .  A
C1292      C1293   1.388       .  A
C1292      H1295   1.082       .  S
C1293      C1294   1.380       .  A
C1293      C1661   1.482       .  S
C1294      H1296   1.082       .  S
N1297      N1298   1.321       .  A
N1297      C1301   1.355       .  A
N1297     Cu1305   2.101       .  S
N1298      C1299   1.337       .  A
N1298     Cu1304   2.054       .  S
C1299      C1300   1.379       .  A
C1299      H1302   1.082       .  S
C1300      C1301   1.394       .  A
C1300      C1741   1.485       .  S
C1301      H1303   1.082       .  S
Cu1304     N1307   2.054       .  S
Cu1305     N1315   2.103       .  S
Cu1306     N1308   2.083       .  S
Cu1306     N1314   2.086       .  S
N1307      N1308   1.319       .  A
N1307      C1311   1.340       .  A
N1308      C1309   1.350       .  A
C1309      C1310   1.390       .  A
C1309      H1312   1.082       .  S
C1310      C1311   1.382       .  A
C1310      C1651   1.481       .  S
C1311      H1313   1.082       .  S
N1314      N1315   1.327       .  A
N1314      C1318   1.343       .  A
N1315      C1316   1.350       .  A
C1316      C1317   1.389       .  A
C1316      H1319   1.082       .  S
C1317      C1318   1.383       .  A
C1317      C1631   1.488       .  S
C1318      H1320   1.082       .  S
N1321      N1322   1.321       .  A
N1321      C1325   1.354       .  A
N1321     Cu1329   2.097       .  S
N1322      C1323   1.339       .  A
N1322     Cu1328   2.065       .  S
C1323      C1324   1.383       .  A
C1323      H1326   1.081       .  S
C1324      C1325   1.393       .  A
C1324      C1681   1.490       .  S
C1325      H1327   1.082       .  S
Cu1328     N1331   2.067       .  S
Cu1329     N1339   2.099       .  S
Cu1330     N1332   2.082       .  S
Cu1330     N1338   2.084       .  S
N1331      N1332   1.319       .  A
N1331      C1335   1.343       .  A
N1332      C1333   1.349       .  A
C1333      C1334   1.390       .  A
C1333      H1336   1.082       .  S
C1334      C1335   1.385       .  A
C1334      C1618   1.486       .  S
C1335      H1337   1.082       .  S
N1338      N1339   1.326       .  A
N1338      C1342   1.344       .  A
N1339      C1340   1.350       .  A
C1340      C1341   1.388       .  A
C1340      H1343   1.082       .  S
C1341      C1342   1.384       .  A
C1341      C1628   1.487       .  S
C1342      H1344   1.082       .  S
N1345      N1346   1.321       .  A
N1345      C1349   1.352       .  A
N1345     Cu1353   2.093       .  S
N1346      C1347   1.340       .  A
N1346     Cu1352   2.067       .  S
C1347      C1348   1.385       .  A
C1347      H1350   1.082       .  S
C1348      C1349   1.393       .  A
C1348      C1951   1.491       .  S
C1349      H1351   1.082       .  S
Cu1352     N1355   2.068       .  S
Cu1353     N1363   2.095       .  S
Cu1354     N1356   2.088       .  S
Cu1354     N1362   2.090       .  S
N1355      N1356   1.319       .  A
N1355      C1359   1.342       .  A
N1356      C1357   1.350       .  A
C1357      C1358   1.393       .  A
C1357      H1360   1.081       .  S
C1358      C1359   1.387       .  A
C1358      C1598   1.492       .  S
C1359      H1361   1.081       .  S
N1362      N1363   1.326       .  A
N1362      C1366   1.346       .  A
N1363      C1364   1.348       .  A
C1364      C1365   1.385       .  A
C1364      H1367   1.082       .  S
C1365      C1366   1.383       .  A
C1365      C1608   1.481       .  S
C1366      H1368   1.082       .  S
N1369      N1370   1.322       .  A
N1369      C1373   1.353       .  A
N1369     Cu1377   2.101       .  S
N1370      C1371   1.340       .  A
N1370     Cu1376   2.062       .  S
C1371      C1372   1.380       .  A
C1371      H1374   1.082       .  S
C1372      C1373   1.391       .  A
C1372      C1588   1.483       .  S
C1373      H1375   1.082       .  S
Cu1376     N1379   2.062       .  S
Cu1377     N1387   2.103       .  S
Cu1378     N1380   2.083       .  S
Cu1378     N1386   2.086       .  S
N1379      N1380   1.320       .  A
N1379      C1383   1.341       .  A
N1380      C1381   1.350       .  A
C1381      C1382   1.387       .  A
C1381      H1384   1.082       .  S
C1382      C1383   1.381       .  A
C1382      C1701   1.477       .  S
C1383      H1385   1.082       .  S
N1386      N1387   1.326       .  A
N1386      C1390   1.345       .  A
N1387      C1388   1.350       .  A
C1388      C1389   1.388       .  A
C1388      H1391   1.082       .  S
C1389      C1390   1.383       .  A
C1389      C1611   1.485       .  S
C1390      H1392   1.082       .  S
N1393      N1394   1.321       .  A
N1393      C1397   1.354       .  A
N1393     Cu1401   2.098       .  S
N1394      C1395   1.341       .  A
N1394     Cu1400   2.066       .  S
C1395      C1396   1.382       .  A
C1395      H1398   1.082       .  S
C1396      C1397   1.391       .  A
C1396      C1908   1.485       .  S
C1397      H1399   1.082       .  S
Cu1400     N1403   2.065       .  S
Cu1401     N1411   2.101       .  S
Cu1402     N1404   2.089       .  S
Cu1402     N1410   2.091       .  S
N1403      N1404   1.321       .  A
N1403      C1407   1.341       .  A
N1404      C1405   1.352       .  A
C1405      C1406   1.390       .  A
C1405      H1408   1.082       .  S
C1406      C1407   1.382       .  A
C1406      C1601   1.483       .  S
C1407      H1409   1.082       .  S
N1410      N1411   1.327       .  A
N1410      C1414   1.346       .  A
N1411      C1412   1.350       .  A
C1412      C1413   1.386       .  A
C1412      H1415   1.082       .  S
C1413      C1414   1.383       .  A
C1413      C1578   1.484       .  S
C1414      H1416   1.082       .  S
N1417      N1418   1.321       .  A
N1417      C1421   1.350       .  A
N1417     Cu1425   2.094       .  S
N1418      C1419   1.344       .  A
N1418     Cu1424   2.067       .  S
C1419      C1420   1.382       .  A
C1419      H1422   1.082       .  S
C1420      C1421   1.390       .  A
C1420      C1568   1.483       .  S
C1421      H1423   1.082       .  S
Cu1424     N1427   2.066       .  S
Cu1425     N1435   2.095       .  S
Cu1426     N1428   2.092       .  S
Cu1426     N1434   2.094       .  S
N1427      N1428   1.321       .  A
N1427      C1431   1.341       .  A
N1428      C1429   1.352       .  A
C1429      C1430   1.392       .  A
C1429      H1432   1.082       .  S
C1430      C1431   1.384       .  A
C1430      C1671   1.488       .  S
C1431      H1433   1.081       .  S
N1434      N1435   1.325       .  A
N1434      C1438   1.348       .  A
N1435      C1436   1.348       .  A
C1436      C1437   1.387       .  A
C1436      H1439   1.082       .  S
C1437      C1438   1.386       .  A
C1437      C1581   1.488       .  S
C1438      H1440   1.082       .  S
N1441      N1442   1.321       .  A
N1441      C1445   1.354       .  A
N1441     Cu1449   2.100       .  S
N1442      C1443   1.338       .  A
N1442     Cu1448   2.058       .  S
C1443      C1444   1.382       .  A
C1443      H1446   1.082       .  S
C1444      C1445   1.394       .  A
C1444      C2241   1.489       .  S
C1445      H1447   1.082       .  S
Cu1448     N1451   2.057       .  S
Cu1449     N1459   2.102       .  S
Cu1450     N1452   2.087       .  S
Cu1450     N1458   2.090       .  S
N1451      N1452   1.320       .  A
N1451      C1455   1.341       .  A
N1452      C1453   1.350       .  A
C1453      C1454   1.390       .  A
C1453      H1456   1.082       .  S
C1454      C1455   1.382       .  A
C1454      C1548   1.481       .  S
C1455      H1457   1.082       .  S
N1458      N1459   1.327       .  A
N1458      C1462   1.346       .  A
N1459      C1460   1.350       .  A
C1460      C1461   1.386       .  A
C1460      H1463   1.082       .  S
C1461      C1462   1.383       .  A
C1461      C1558   1.484       .  S
C1462      H1464   1.082       .  S
N1465      N1466   1.321       .  A
N1465      C1469   1.352       .  A
N1465     Cu1473   2.095       .  S
N1466      C1467   1.341       .  A
N1466     Cu1472   2.063       .  S
C1467      C1468   1.383       .  A
C1467      H1470   1.082       .  S
C1468      C1469   1.392       .  A
C1468      C1591   1.487       .  S
C1469      H1471   1.082       .  S
Cu1472     N1475   2.064       .  S
Cu1473     N1483   2.098       .  S
Cu1474     N1476   2.093       .  S
Cu1474     N1482   2.094       .  S
N1475      N1476   1.319       .  A
N1475      C1479   1.340       .  A
N1476      C1477   1.353       .  A
C1477      C1478   1.394       .  A
C1477      H1480   1.081       .  S
C1478      C1479   1.386       .  A
C1478      C1641   1.493       .  S
C1479      H1481   1.081       .  S
N1482      N1483   1.327       .  A
N1482      C1486   1.347       .  A
N1483      C1484   1.349       .  A
C1484      C1485   1.385       .  A
C1484      H1487   1.082       .  S
C1485      C1486   1.383       .  A
C1485      C1561   1.482       .  S
C1486      H1488   1.082       .  S
N1489      N1490   1.321       .  A
N1489      C1493   1.353       .  A
N1489     Cu1497   2.095       .  S
N1490      C1491   1.339       .  A
N1490     Cu1496   2.061       .  S
C1491      C1492   1.382       .  A
C1491      H1494   1.082       .  S
C1492      C1493   1.392       .  A
C1492      C2221   1.486       .  S
C1493      H1495   1.082       .  S
Cu1496     N1499   2.061       .  S
Cu1497     N1507   2.097       .  S
Cu1498     N1500   2.083       .  S
Cu1498     N1506   2.085       .  S
N1499      N1500   1.320       .  A
N1499      C1503   1.341       .  A
N1500      C1501   1.349       .  A
C1501      C1502   1.389       .  A
C1501      H1504   1.082       .  S
C1502      C1503   1.383       .  A
C1502      C1551   1.482       .  S
C1503      H1505   1.082       .  S
N1506      N1507   1.325       .  A
N1506      C1510   1.346       .  A
N1507      C1508   1.348       .  A
C1508      C1509   1.388       .  A
C1508      H1511   1.082       .  S
C1509      C1510   1.385       .  A
C1509      C1541   1.488       .  S
C1510      H1512   1.082       .  S
N1513      N1514   1.323       .  A
N1513      C1517   1.351       .  A
N1513     Cu1521   2.099       .  S
N1514      C1515   1.344       .  A
N1514     Cu1520   2.070       .  S
C1515      C1516   1.380       .  A
C1515      H1518   1.082       .  S
C1516      C1517   1.390       .  A
C1516      C1571   1.480       .  S
C1517      H1519   1.082       .  S
Cu1520     N1523   2.071       .  S
Cu1521     N1531   2.100       .  S
Cu1522     N1524   2.079       .  S
Cu1522     N1530   2.080       .  S
N1523      N1524   1.320       .  A
N1523      C1527   1.343       .  A
N1524      C1525   1.349       .  A
C1525      C1526   1.389       .  A
C1525      H1528   1.082       .  S
C1526      C1527   1.386       .  A
C1526      C1621   1.486       .  S
C1527      H1529   1.081       .  S
N1530      N1531   1.325       .  A
N1530      C1534   1.345       .  A
N1531      C1532   1.349       .  A
C1532      C1533   1.390       .  A
C1532      H1535   1.082       .  S
C1533      C1534   1.384       .  A
C1533      C1538   1.488       .  S
C1534      H1536   1.082       .  S
C1537      C1538   1.408       .  A
C1537      C1542   1.401       .  A
C1537      F1544   1.358       .  S
C1538      C1539   1.408       .  A
C1539      C1540   1.403       .  A
C1539      F1546   1.357       .  S
C1540      C1541   1.409       .  A
C1540      F1545   1.357       .  S
C1541      C1542   1.408       .  A
C1542      F1543   1.358       .  S
C1547      C1548   1.406       .  A
C1547      C1552   1.397       .  A
C1547      F1554   1.358       .  S
C1548      C1549   1.407       .  A
C1549      C1550   1.403       .  A
C1549      F1556   1.357       .  S
C1550      C1551   1.407       .  A
C1550      F1555   1.357       .  S
C1551      C1552   1.407       .  A
C1552      F1553   1.358       .  S
C1557      C1558   1.408       .  A
C1557      C1562   1.401       .  A
C1557      F1564   1.358       .  S
C1558      C1559   1.407       .  A
C1559      C1560   1.404       .  A
C1559      F1566   1.358       .  S
C1560      C1561   1.406       .  A
C1560      F1565   1.358       .  S
C1561      C1562   1.405       .  A
C1562      F1563   1.358       .  S
C1567      C1568   1.408       .  A
C1567      C1572   1.402       .  A
C1567      F1574   1.358       .  S
C1568      C1569   1.407       .  A
C1569      C1570   1.403       .  A
C1569      F1576   1.358       .  S
C1570      C1571   1.406       .  A
C1570      F1575   1.358       .  S
C1571      C1572   1.405       .  A
C1572      F1573   1.358       .  S
C1577      C1578   1.406       .  A
C1577      C1582   1.404       .  A
C1577      F1584   1.358       .  S
C1578      C1579   1.406       .  A
C1579      C1580   1.402       .  A
C1579      F1586   1.358       .  S
C1580      C1581   1.408       .  A
C1580      F1585   1.357       .  S
C1581      C1582   1.409       .  A
C1582      F1583   1.358       .  S
C1587      C1588   1.406       .  A
C1587      C1592   1.397       .  A
C1587      F1594   1.358       .  S
C1588      C1589   1.407       .  A
C1589      C1590   1.407       .  A
C1589      F1596   1.357       .  S
C1590      C1591   1.410       .  A
C1590      F1595   1.357       .  S
C1591      C1592   1.407       .  A
C1592      F1593   1.358       .  S
C1597      C1598   1.409       .  A
C1597      C1602   1.397   1_556  A
C1597      F1604   1.357       .  S
C1598      C1599   1.412       .  A
C1599      C1600   1.407   1_556  A
C1599      F1606   1.357       .  S
C1600      C1601   1.406       .  A
C1600      F1605   1.357       .  S
C1601      C1602   1.405       .  A
C1602      F1603   1.358       .  S
C1607      C1608   1.405       .  A
C1607      C1612   1.401       .  A
C1607      F1614   1.358       .  S
C1608      C1609   1.406       .  A
C1609      C1610   1.404       .  A
C1609      F1616   1.358       .  S
C1610      C1611   1.407       .  A
C1610      F1615   1.357       .  S
C1611      C1612   1.408       .  A
C1612      F1613   1.358       .  S
C1617      C1618   1.408       .  A
C1617      C1622   1.398       .  A
C1617      F1624   1.358       .  S
C1618      C1619   1.408       .  A
C1619      C1620   1.405       .  A
C1619      F1626   1.357       .  S
C1620      C1621   1.408       .  A
C1620      F1625   1.357       .  S
C1621      C1622   1.407       .  A
C1622      F1623   1.358       .  S
C1627      C1628   1.407       .  A
C1627      C1632   1.398       .  A
C1627      F1634   1.358       .  S
C1628      C1629   1.409       .  A
C1629      C1630   1.405       .  A
C1629      F1636   1.357       .  S
C1630      C1631   1.409       .  A
C1630      F1635   1.357       .  S
C1631      C1632   1.408       .  A
C1632      F1633   1.358       .  S
C1637      C1638   1.403       .  A
C1637      C1642   1.395       .  A
C1637      F1644   1.358       .  S
C1638      C1639   1.407       .  A
C1639      C1640   1.409       .  A
C1639      F1646   1.358       .  S
C1640      C1641   1.412       .  A
C1640      F1645   1.357       .  S
C1641      C1642   1.410       .  A
C1642      F1643   1.357       .  S
C1647      C1648   1.406       .  A
C1647      C1652   1.395       .  A
C1647      F1654   1.358       .  S
C1648      C1649   1.408       .  A
C1649      C1650   1.406       .  A
C1649      F1656   1.357       .  S
C1650      C1651   1.407       .  A
C1650      F1655   1.357       .  S
C1651      C1652   1.406       .  A
C1652      F1653   1.358       .  S
C1657      C1658   1.407       .  A
C1657      C1662   1.402       .  A
C1657      F1664   1.358       .  S
C1658      C1659   1.405       .  A
C1659      C1660   1.402       .  A
C1659      F1666   1.358       .  S
C1660      C1661   1.407       .  A
C1660      F1665   1.358       .  S
C1661      C1662   1.405       .  A
C1662      F1663   1.357       .  S
C1667      C1668   1.409       .  A
C1667      C1672   1.407       .  A
C1667      F1674   1.357       .  S
C1668      C1669   1.406       .  A
C1669      C1670   1.396       .  A
C1669      F1676   1.358       .  S
C1670      C1671   1.409       .  A
C1670      F1675   1.358       .  S
C1671      C1672   1.409       .  A
C1672      F1673   1.357       .  S
C1677      C1678   1.410       .  A
C1677      C1682   1.393       .  A
C1677      F1684   1.357       .  S
C1678      C1679   1.412       .  A
C1679      C1680   1.411       .  A
C1679      F1686   1.357       .  S
C1680      C1681   1.409       .  A
C1680      F1685   1.357       .  S
C1681      C1682   1.406       .  A
C1682      F1683   1.358       .  S
C1687      C1688   1.408       .  A
C1687      C1692   1.400       .  A
C1687      F1694   1.357       .  S
C1688      C1689   1.409       .  A
C1689      C1690   1.406       .  A
C1689      F1696   1.357       .  S
C1690      C1691   1.410       .  A
C1690      F1695   1.357       .  S
C1691      C1692   1.409       .  A
C1692      F1693   1.357       .  S
C1697      C1698   1.407       .  A
C1697      C1702   1.395       .  A
C1697      F1704   1.358       .  S
C1698      C1699   1.409       .  A
C1699      C1700   1.406       .  A
C1699      F1706   1.357       .  S
C1700      C1701   1.406       .  A
C1700      F1705   1.358       .  S
C1701      C1702   1.403       .  A
C1702      F1703   1.358       .  S
C1707      C1708   1.410       .  A
C1707      C1712   1.410       .  A
C1707      F1714   1.357       .  S
C1708      C1709   1.408       .  A
C1709      C1710   1.396       .  A
C1709      F1716   1.358       .  S
C1710      C1711   1.407       .  A
C1710      F1715   1.358       .  S
C1711      C1712   1.409       .  A
C1712      F1713   1.357       .  S
C1717      C1718   1.409   1_554  A
C1717      C1722   1.407       .  A
C1717      F1724   1.357   1_554  S
C1718      C1719   1.407   1_556  A
C1719      C1720   1.396       .  A
C1719      F1726   1.358   1_554  S
C1720      C1721   1.405       .  A
C1720      F1725   1.358       .  S
C1721      C1722   1.407       .  A
C1722      F1723   1.357       .  S
C1727      C1728   1.406       .  A
C1727      C1732   1.403       .  A
C1727      F1734   1.358       .  S
C1728      C1729   1.407       .  A
C1729      C1730   1.403       .  A
C1729      F1736   1.358       .  S
C1730      C1731   1.407       .  A
C1730      F1735   1.358       .  S
C1731      C1732   1.407       .  A
C1732      F1733   1.358       .  S
C1737      C1738   1.404   1_545  A
C1737      C1742   1.394       .  A
C1737      F1744   1.358   1_545  S
C1738      C1739   1.408   1_565  A
C1739      C1740   1.409       .  A
C1739      F1746   1.357   1_545  S
C1740      C1741   1.409       .  A
C1740      F1745   1.357       .  S
C1741      C1742   1.407       .  A
C1742      F1743   1.358       .  S
C1747      C1748   1.408       .  A
C1747      C1752   1.402       .  A
C1747      F1754   1.358       .  S
C1748      C1749   1.408       .  A
C1749      C1750   1.404       .  A
C1749      F1756   1.358       .  S
C1750      C1751   1.407       .  A
C1750      F1755   1.358       .  S
C1751      C1752   1.406       .  A
C1752      F1753   1.358       .  S
C1757      C1758   1.405   1_545  A
C1757      C1762   1.392       .  A
C1757      F1764   1.358   1_545  S
C1758      C1759   1.407   1_565  A
C1759      C1760   1.408       .  A
C1759      F1766   1.357   1_545  S
C1760      C1761   1.410       .  A
C1760      F1765   1.357       .  S
C1761      C1762   1.406       .  A
C1762      F1763   1.358       .  S
C1767      C1768   1.409       .  A
C1767      C1772   1.395       .  A
C1767      F1774   1.358       .  S
C1768      C1769   1.408       .  A
C1769      C1770   1.405       .  A
C1769      F1776   1.357       .  S
C1770      C1771   1.407       .  A
C1770      F1775   1.357       .  S
C1771      C1772   1.405       .  A
C1772      F1773   1.358       .  S
C1777      C1778   1.408       .  A
C1777      C1782   1.403       .  A
C1777      F1784   1.358       .  S
C1778      C1779   1.407       .  A
C1779      C1780   1.403       .  A
C1779      F1786   1.357       .  S
C1780      C1781   1.407       .  A
C1780      F1785   1.358       .  S
C1781      C1782   1.406       .  A
C1782      F1783   1.358       .  S
C1787      C1788   1.405       .  A
C1787      C1792   1.407       .  A
C1787      F1794   1.357       .  S
C1788      C1789   1.403       .  A
C1789      C1790   1.396       .  A
C1789      F1796   1.358       .  S
C1790      C1791   1.409       .  A
C1790      F1795   1.358       .  S
C1791      C1792   1.411       .  A
C1792      F1793   1.357       .  S
C1797      C1798   1.407       .  A
C1797      C1802   1.401       .  A
C1797      F1804   1.358       .  S
C1798      C1799   1.407       .  A
C1799      C1800   1.404       .  A
C1799      F1806   1.358       .  S
C1800      C1801   1.407       .  A
C1800      F1805   1.358       .  S
C1801      C1802   1.405       .  A
C1802      F1803   1.358       .  S
C1807      C1808   1.405       .  A
C1807      C1812   1.395       .  A
C1807      F1814   1.358       .  S
C1808      C1809   1.408       .  A
C1809      C1810   1.410       .  A
C1809      F1816   1.357       .  S
C1810      C1811   1.410       .  A
C1810      F1815   1.357       .  S
C1811      C1812   1.407       .  A
C1812      F1813   1.358       .  S
C1817      C1818   1.406       .  A
C1817      C1822   1.397   1_556  A
C1817      F1824   1.358       .  S
C1818      C1819   1.408       .  A
C1819      C1820   1.406   1_556  A
C1819      F1826   1.357       .  S
C1820      C1821   1.409       .  A
C1820      F1825   1.357       .  S
C1821      C1822   1.407       .  A
C1822      F1823   1.358       .  S
C1827      C1828   1.408       .  A
C1827      C1832   1.400       .  A
C1827      F1834   1.358       .  S
C1828      C1829   1.406       .  A
C1829      C1830   1.403       .  A
C1829      F1836   1.358       .  S
C1830      C1831   1.407       .  A
C1830      F1835   1.358       .  S
C1831      C1832   1.405       .  A
C1832      F1833   1.358       .  S
C1837      C1838   1.404       .  A
C1837      C1842   1.393       .  A
C1837      F1844   1.358       .  S
C1838      C1839   1.407       .  A
C1839      C1840   1.406       .  A
C1839      F1846   1.357       .  S
C1840      C1841   1.408       .  A
C1840      F1845   1.358       .  S
C1841      C1842   1.406       .  A
C1842      F1843   1.358       .  S
C1847      C1848   1.409       .  A
C1847      C1852   1.400       .  A
C1847      F1854   1.357       .  S
C1848      C1849   1.410       .  A
C1849      C1850   1.404       .  A
C1849      F1856   1.357       .  S
C1850      C1851   1.408       .  A
C1850      F1855   1.357       .  S
C1851      C1852   1.408       .  A
C1852      F1853   1.357       .  S
C1857      C1858   1.409       .  A
C1857      C1862   1.407       .  A
C1857      F1864   1.357       .  S
C1858      C1859   1.407       .  A
C1859      C1860   1.395       .  A
C1859      F1866   1.358       .  S
C1860      C1861   1.405       .  A
C1860      F1865   1.358       .  S
C1861      C1862   1.407       .  A
C1862      F1863   1.357       .  S
C1867      C1868   1.406       .  A
C1867      C1872   1.397       .  A
C1867      F1874   1.358       .  S
C1868      C1869   1.408       .  A
C1869      C1870   1.403       .  A
C1869      F1876   1.357       .  S
C1870      C1871   1.407       .  A
C1870      F1875   1.357       .  S
C1871      C1872   1.406       .  A
C1872      F1873   1.358       .  S
C1877      C1878   1.405       .  A
C1877      C1882   1.400       .  A
C1877      F1884   1.358       .  S
C1878      C1879   1.408       .  A
C1879      C1880   1.401       .  A
C1879      F1886   1.358       .  S
C1880      C1881   1.406       .  A
C1880      F1885   1.358       .  S
C1881      C1882   1.406       .  A
C1882      F1883   1.358       .  S
C1887      C1888   1.412       .  A
C1887      C1892   1.409       .  A
C1887      F1894   1.357       .  S
C1888      C1889   1.410       .  A
C1889      C1890   1.397       .  A
C1889      F1896   1.357       .  S
C1890      C1891   1.406       .  A
C1890      F1895   1.358       .  S
C1891      C1892   1.407       .  A
C1892      F1893   1.357       .  S
C1897      C1898   1.407       .  A
C1897      C1902   1.409       .  A
C1897      F1904   1.357       .  S
C1898      C1899   1.405       .  A
C1899      C1900   1.396       .  A
C1899      F1906   1.358       .  S
C1900      C1901   1.408       .  A
C1900      F1905   1.358       .  S
C1901      C1902   1.410       .  A
C1902      F1903   1.357       .  S
C1907      C1908   1.408       .  A
C1907      C1912   1.409       .  A
C1907      F1914   1.357       .  S
C1908      C1909   1.406       .  A
C1909      C1910   1.396       .  A
C1909      F1916   1.358       .  S
C1910      C1911   1.406       .  A
C1910      F1915   1.358       .  S
C1911      C1912   1.408       .  A
C1912      F1913   1.357       .  S
C1917      C1918   1.409       .  A
C1917      C1922   1.406       .  A
C1917      F1924   1.357       .  S
C1918      C1919   1.409       .  A
C1919      C1920   1.401       .  A
C1919      F1926   1.357       .  S
C1920      C1921   1.410       .  A
C1920      F1925   1.357       .  S
C1921      C1922   1.410       .  A
C1922      F1923   1.357       .  S
C1927      C1928   1.405       .  A
C1927      C1932   1.395       .  A
C1927      F1934   1.358       .  S
C1928      C1929   1.407       .  A
C1929      C1930   1.406       .  A
C1929      F1936   1.357       .  S
C1930      C1931   1.408       .  A
C1930      F1935   1.357       .  S
C1931      C1932   1.407       .  A
C1932      F1933   1.358       .  S
C1937      C1938   1.408       .  A
C1937      C1942   1.409       .  A
C1937      F1944   1.357       .  S
C1938      C1939   1.407       .  A
C1939      C1940   1.393       .  A
C1939      F1946   1.358       .  S
C1940      C1941   1.404       .  A
C1940      F1945   1.358       .  S
C1941      C1942   1.408       .  A
C1942      F1943   1.357       .  S
C1947      C1948   1.408       .  A
C1947      C1952   1.408       .  A
C1947      F1954   1.357       .  S
C1948      C1949   1.407       .  A
C1949      C1950   1.395       .  A
C1949      F1956   1.358       .  S
C1950      C1951   1.408       .  A
C1950      F1955   1.358       .  S
C1951      C1952   1.411       .  A
C1952      F1953   1.357       .  S
C1957      C1958   1.409       .  A
C1957      C1962   1.407   1_556  A
C1957      F1964   1.357       .  S
C1958      C1959   1.408       .  A
C1959      C1960   1.395   1_556  A
C1959      F1966   1.358       .  S
C1960      C1961   1.404       .  A
C1960      F1965   1.358       .  S
C1961      C1962   1.408       .  A
C1962      F1963   1.357       .  S
C1967      C1968   1.407       .  A
C1967      C1972   1.404       .  A
C1967      F1974   1.358       .  S
C1968      C1969   1.408       .  A
C1969      C1970   1.402       .  A
C1969      F1976   1.358       .  S
C1970      C1971   1.405       .  A
C1970      F1975   1.358       .  S
C1971      C1972   1.407       .  A
C1972      F1973   1.358       .  S
C1977      C1978   1.408       .  A
C1977      C1982   1.409       .  A
C1977      F1984   1.357       .  S
C1978      C1979   1.405       .  A
C1979      C1980   1.397       .  A
C1979      F1986   1.358       .  S
C1980      C1981   1.406       .  A
C1980      F1985   1.358       .  S
C1981      C1982   1.409       .  A
C1982      F1983   1.357       .  S
C1987      C1988   1.409       .  A
C1987      C1992   1.401       .  A
C1987      F1994   1.358       .  S
C1988      C1989   1.407       .  A
C1989      C1990   1.401       .  A
C1989      F1996   1.358       .  S
C1990      C1991   1.406       .  A
C1990      F1995   1.358       .  S
C1991      C1992   1.404       .  A
C1992      F1993   1.358       .  S
C1997      C1998   1.406       .  A
C1997      C2002   1.395       .  A
C1997      F2004   1.358       .  S
C1998      C1999   1.410       .  A
C1999      C2000   1.411       .  A
C1999      F2006   1.357       .  S
C2000      C2001   1.410       .  A
C2000      F2005   1.357       .  S
C2001      C2002   1.407       .  A
C2002      F2003   1.358       .  S
C2007      C2008   1.407       .  A
C2007      C2012   1.397   1_556  A
C2007      F2014   1.358       .  S
C2008      C2009   1.408       .  A
C2009      C2010   1.405   1_556  A
C2009      F2016   1.357       .  S
C2010      C2011   1.408       .  A
C2010      F2015   1.357       .  S
C2011      C2012   1.405       .  A
C2012      F2013   1.358       .  S
C2017      C2018   1.408       .  A
C2017      C2022   1.401       .  A
C2017      F2024   1.358       .  S
C2018      C2019   1.407       .  A
C2019      C2020   1.404       .  A
C2019      F2026   1.358       .  S
C2020      C2021   1.408       .  A
C2020      F2025   1.358       .  S
C2021      C2022   1.406       .  A
C2022      F2023   1.358       .  S
C2027      C2028   1.406       .  A
C2027      C2032   1.408       .  A
C2027      F2034   1.357       .  S
C2028      C2029   1.401       .  A
C2029      C2030   1.393       .  A
C2029      F2036   1.358       .  S
C2030      C2031   1.409       .  A
C2030      F2035   1.358       .  S
C2031      C2032   1.410       .  A
C2032      F2033   1.357       .  S
C2037      C2038   1.406       .  A
C2037      C2042   1.401       .  A
C2037      F2044   1.357       .  S
C2038      C2039   1.408       .  A
C2039      C2040   1.400       .  A
C2039      F2046   1.358       .  S
C2040      C2041   1.404       .  A
C2040      F2045   1.358       .  S
C2041      C2042   1.405       .  A
C2042      F2043   1.358       .  S
C2047      C2048   1.408       .  A
C2047      C2052   1.395       .  A
C2047      F2054   1.358       .  S
C2048      C2049   1.410       .  A
C2049      C2050   1.409       .  A
C2049      F2056   1.357       .  S
C2050      C2051   1.409       .  A
C2050      F2055   1.358       .  S
C2051      C2052   1.404       .  A
C2052      F2053   1.358       .  S
C2057      C2058   1.405       .  A
C2057      C2062   1.401       .  A
C2057      F2064   1.358       .  S
C2058      C2059   1.405       .  A
C2059      C2060   1.404       .  A
C2059      F2066   1.358       .  S
C2060      C2061   1.407       .  A
C2060      F2065   1.358       .  S
C2061      C2062   1.405       .  A
C2062      F2063   1.358       .  S
C2067      C2068   1.409       .  A
C2067      C2072   1.405       .  A
C2067      F2074   1.357       .  S
C2068      C2069   1.410       .  A
C2069      C2070   1.404       .  A
C2069      F2076   1.358       .  S
C2070      C2071   1.405       .  A
C2070      F2075   1.358       .  S
C2071      C2072   1.406       .  A
C2072      F2073   1.358       .  S
C2077      C2078   1.403       .  A
C2077      C2082   1.393   1_655  A
C2077      F2084   1.358       .  S
C2078      C2079   1.406       .  A
C2079      C2080   1.408   1_655  A
C2079      F2086   1.357       .  S
C2080      C2081   1.410       .  A
C2080      F2085   1.357       .  S
C2081      C2082   1.408       .  A
C2082      F2083   1.358       .  S
C2087      C2088   1.409       .  A
C2087      C2092   1.407       .  A
C2087      F2094   1.357       .  S
C2088      C2089   1.406       .  A
C2089      C2090   1.393       .  A
C2089      F2096   1.358       .  S
C2090      C2091   1.404       .  A
C2090      F2095   1.358       .  S
C2091      C2092   1.407       .  A
C2092      F2093   1.357       .  S
C2097      C2098   1.409       .  A
C2097      C2102   1.406       .  A
C2097      F2104   1.357       .  S
C2098      C2099   1.407       .  A
C2099      C2100   1.399       .  A
C2099      F2106   1.358       .  S
C2100      C2101   1.408       .  A
C2100      F2105   1.357       .  S
C2101      C2102   1.409       .  A
C2102      F2103   1.357       .  S
C2107      C2108   1.403       .  A
C2107      C2112   1.396   1_655  A
C2107      F2114   1.358       .  S
C2108      C2109   1.406       .  A
C2109      C2110   1.408   1_655  A
C2109      F2116   1.357       .  S
C2110      C2111   1.410       .  A
C2110      F2115   1.357       .  S
C2111      C2112   1.409       .  A
C2112      F2113   1.358       .  S
C2117      C2118   1.409       .  A
C2117      C2122   1.406       .  A
C2117      F2124   1.357       .  S
C2118      C2119   1.408       .  A
C2119      C2120   1.396       .  A
C2119      F2126   1.358       .  S
C2120      C2121   1.406       .  A
C2120      F2125   1.358       .  S
C2121      C2122   1.407       .  A
C2122      F2123   1.357       .  S
C2127      C2128   1.407       .  A
C2127      C2132   1.396       .  A
C2127      F2134   1.358       .  S
C2128      C2129   1.406       .  A
C2129      C2130   1.405       .  A
C2129      F2136   1.357       .  S
C2130      C2131   1.409       .  A
C2130      F2135   1.357       .  S
C2131      C2132   1.408       .  A
C2132      F2133   1.358       .  S
C2137      C2138   1.407       .  A
C2137      C2142   1.401       .  A
C2137      F2144   1.358       .  S
C2138      C2139   1.406       .  A
C2139      C2140   1.404       .  A
C2139      F2146   1.358       .  S
C2140      C2141   1.409       .  A
C2140      F2145   1.358       .  S
C2141      C2142   1.407       .  A
C2142      F2143   1.357       .  S
C2147      C2148   1.407       .  A
C2147      C2152   1.394       .  A
C2147      F2154   1.358       .  S
C2148      C2149   1.409       .  A
C2149      C2150   1.403       .  A
C2149      F2156   1.357       .  S
C2150      C2151   1.405       .  A
C2150      F2155   1.357       .  S
C2151      C2152   1.405       .  A
C2152      F2153   1.358       .  S
C2157      C2158   1.408       .  A
C2157      C2162   1.409       .  A
C2157      F2164   1.357       .  S
C2158      C2159   1.406       .  A
C2159      C2160   1.395       .  A
C2159      F2166   1.358       .  S
C2160      C2161   1.405       .  A
C2160      F2165   1.358       .  S
C2161      C2162   1.408       .  A
C2162      F2163   1.357       .  S
C2167      C2168   1.411       .  A
C2167      C2172   1.401       .  A
C2167      F2174   1.357       .  S
C2168      C2169   1.409       .  A
C2169      C2170   1.405       .  A
C2169      F2176   1.357       .  S
C2170      C2171   1.410       .  A
C2170      F2175   1.357       .  S
C2171      C2172   1.408       .  A
C2172      F2173   1.357       .  S
C2177      C2178   1.406       .  A
C2177      C2182   1.405   1_556  A
C2177      F2184   1.358       .  S
C2178      C2179   1.405       .  A
C2179      C2180   1.394   1_556  A
C2179      F2186   1.358       .  S
C2180      C2181   1.406       .  A
C2180      F2185   1.358       .  S
C2181      C2182   1.408       .  A
C2182      F2183   1.357       .  S
C2187      C2188   1.410       .  A
C2187      C2192   1.405       .  A
C2187      F2194   1.357       .  S
C2188      C2189   1.409       .  A
C2189      C2190   1.395       .  A
C2189      F2196   1.357       .  S
C2190      C2191   1.405       .  A
C2190      F2195   1.358       .  S
C2191      C2192   1.409       .  A
C2192      F2193   1.357       .  S
C2197      C2198   1.405       .  A
C2197      C2202   1.407       .  A
C2197      F2204   1.357       .  S
C2198      C2199   1.406       .  A
C2199      C2200   1.394       .  A
C2199      F2206   1.358       .  S
C2200      C2201   1.411       .  A
C2200      F2205   1.357       .  S
C2201      C2202   1.412       .  A
C2202      F2203   1.356       .  S
C2207      C2208   1.408       .  A
C2207      C2212   1.397       .  A
C2207      F2214   1.357       .  S
C2208      C2209   1.407       .  A
C2209      C2210   1.403       .  A
C2209      F2216   1.357       .  S
C2210      C2211   1.409       .  A
C2210      F2215   1.357       .  S
C2211      C2212   1.407       .  A
C2212      F2213   1.358       .  S
C2217      C2218   1.407       .  A
C2217      C2222   1.408   1_655  A
C2217      F2224   1.357       .  S
C2218      C2219   1.404       .  A
C2219      C2220   1.394   1_655  A
C2219      F2226   1.358       .  S
C2220      C2221   1.407       .  A
C2220      F2225   1.358       .  S
C2221      C2222   1.410       .  A
C2222      F2223   1.357       .  S
C2227      C2228   1.406       .  A
C2227      C2232   1.402       .  A
C2227      F2234   1.357       .  S
C2228      C2229   1.407       .  A
C2229      C2230   1.398       .  A
C2229      F2236   1.358       .  S
C2230      C2231   1.410       .  A
C2230      F2235   1.357       .  S
C2231      C2232   1.410       .  A
C2232      F2233   1.357       .  S
C2237      C2238   1.408       .  A
C2237      C2242   1.409   1_655  A
C2237      F2244   1.357       .  S
C2238      C2239   1.407       .  A
C2239      C2240   1.395   1_655  A
C2239      F2246   1.358       .  S
C2240      C2241   1.408       .  A
C2240      F2245   1.358       .  S
C2241      C2242   1.409       .  A
C2242      F2243   1.357       .  S
C2247      C2248   1.408       .  A
C2247      C2252   1.405       .  A
C2247      F2254   1.357       .  S
C2248      C2249   1.407       .  A
C2249      C2250   1.393       .  A
C2249      F2256   1.358       .  S
C2250      C2251   1.405       .  A
C2250      F2255   1.358       .  S
C2251      C2252   1.408       .  A
C2252      F2253   1.357       .  S
C2257      C2258   1.405       .  A
C2257      C2262   1.398       .  A
C2257      F2264   1.358       .  S
C2258      C2259   1.406       .  A
C2259      C2260   1.404       .  A
C2259      F2266   1.358       .  S
C2260      C2261   1.412       .  A
C2260      F2265   1.356       .  S
C2261      C2262   1.413       .  A
C2262      F2263   1.356       .  S
C2267      C2268   1.406       .  A
C2267      C2272   1.394       .  A
C2267      F2274   1.358       .  S
C2268      C2269   1.408       .  A
C2269      C2270   1.407       .  A
C2269      F2276   1.357       .  S
C2270      C2271   1.407       .  A
C2270      F2275   1.357       .  S
C2271      C2272   1.405       .  A
C2272      F2273   1.358       .  S
C2277      C2278   1.404       .  A
C2277      C2282   1.395       .  A
C2277      F2284   1.358       .  S
C2278      C2279   1.409       .  A
C2279      C2280   1.411       .  A
C2279      F2286   1.357       .  S
C2280      C2281   1.410       .  A
C2280      F2285   1.357       .  S
C2281      C2282   1.408       .  A
C2282      F2283   1.358       .  S
C2287      C2288   1.406       .  A
C2287      C2292   1.402       .  A
C2287      F2294   1.357       .  S
C2288      C2289   1.408       .  A
C2289      C2290   1.402       .  A
C2289      F2296   1.358       .  S
C2290      C2291   1.406       .  A
C2290      F2295   1.358       .  S
C2291      C2292   1.407       .  A
C2292      F2293   1.358       .  S
C2297      C2298   1.407       .  A
C2297      C2302   1.405       .  A
C2297      F2304   1.357       .  S
C2298      C2299   1.404       .  A
C2299      C2300   1.393       .  A
C2299      F2306   1.358       .  S
C2300      C2301   1.406       .  A
C2300      F2305   1.359       .  S
C2301      C2302   1.406       .  A
C2302      F2303   1.357       .  S
C2307      C2308   1.406       .  A
C2307      C2312   1.393       .  A
C2307      F2314   1.358       .  S
C2308      C2309   1.409       .  A
C2309      C2310   1.408       .  A
C2309      F2316   1.357       .  S
C2310      C2311   1.409       .  A
C2310      F2315   1.357       .  S
C2311      C2312   1.405       .  A
C2312      F2313   1.358       .  S
C2317      C2318   1.407       .  A
C2317      C2322   1.400   1_556  A
C2317      F2324   1.358       .  S
C2318      C2319   1.407       .  A
C2319      C2320   1.403   1_556  A
C2319      F2326   1.357       .  S
C2320      C2321   1.408       .  A
C2320      F2325   1.357       .  S
C2321      C2322   1.408       .  A
C2322      F2323   1.358       .  S
C2327      C2328   1.407       .  A
C2327      C2332   1.400       .  A
C2327      F2334   1.358       .  S
C2328      C2329   1.406       .  A
C2329      C2330   1.401       .  A
C2329      F2336   1.358       .  S
C2330      C2331   1.406       .  A
C2330      F2335   1.358       .  S
C2331      C2332   1.405       .  A
C2332      F2333   1.358       .  S
C2337      C2338   1.406       .  A
C2337      C2342   1.395       .  A
C2337      F2344   1.358       .  S
C2338      C2339   1.406       .  A
C2339      C2340   1.402       .  A
C2339      F2346   1.357       .  S
C2340      C2341   1.407       .  A
C2340      F2345   1.357       .  S
C2341      C2342   1.406       .  A
C2342      F2343   1.358       .  S
C2347      C2348   1.406       .  A
C2347      C2352   1.396       .  A
C2347      F2354   1.358       .  S
C2348      C2349   1.408       .  A
C2349      C2350   1.409       .  A
C2349      F2356   1.357       .  S
C2350      C2351   1.408   1_545  A
C2350      F2355   1.357   1_545  S
C2351      C2352   1.404   1_565  A
C2352      F2353   1.358   1_545  S
C2357      C2358   1.411       .  A
C2357      C2362   1.405       .  A
C2357      F2364   1.357       .  S
C2358      C2359   1.410       .  A
C2359      C2360   1.399       .  A
C2359      F2366   1.357       .  S
C2360      C2361   1.409       .  A
C2360      F2365   1.357       .  S
C2361      C2362   1.408       .  A
C2362      F2363   1.357       .  S
C2367      C2368   1.407       .  A
C2367      C2372   1.405       .  A
C2367      F2374   1.357       .  S
C2368      C2369   1.407       .  A
C2369      C2370   1.397       .  A
C2369      F2376   1.358       .  S
C2370      C2371   1.409       .  A
C2370      F2375   1.358       .  S
C2371      C2372   1.409       .  A
C2372      F2373   1.357       .  S
C2377      C2378   1.406       .  A
C2377      C2382   1.396       .  A
C2377      F2384   1.358       .  S
C2378      C2379   1.408       .  A
C2379      C2380   1.409       .  A
C2379      F2386   1.357       .  S
C2380      C2381   1.409   1_545  A
C2380      F2385   1.357   1_545  S
C2381      C2382   1.406   1_565  A
C2382      F2383   1.358   1_545  S
C2387      C2388   1.404       .  A
C2387      C2392   1.395       .  A
C2387      F2394   1.358       .  S
C2388      C2389   1.405       .  A
C2389      C2390   1.405       .  A
C2389      F2396   1.357       .  S
C2390      C2391   1.410       .  A
C2390      F2395   1.357       .  S
C2391      C2392   1.408       .  A
C2392      F2393   1.358       .  S
C2397      C2398   1.407       .  A
C2397      C2402   1.403       .  A
C2397      F2404   1.358       .  S
C2398      C2399   1.407       .  A
C2399      C2400   1.403       .  A
C2399      F2406   1.357       .  S
C2400      C2401   1.407       .  A
C2400      F2405   1.358       .  S
C2401      C2402   1.406       .  A
C2402      F2403   1.358       .  S
C2407      C2408   1.407       .  A
C2407      C2412   1.404       .  A
C2407      F2414   1.357       .  S
C2408      C2409   1.406       .  A
C2409      C2410   1.394       .  A
C2409      F2416   1.358       .  S
C2410      C2411   1.405       .  A
C2410      F2415   1.358       .  S
C2411      C2412   1.407       .  A
C2412      F2413   1.357       .  S
C2417      C2418   1.409       .  A
C2417      C2422   1.407       .  A
C2417      F2424   1.357       .  S
C2418      C2419   1.407       .  A
C2419      C2420   1.394       .  A
C2419      F2426   1.358       .  S
C2420      C2421   1.403       .  A
C2420      F2425   1.358       .  S
C2421      C2422   1.406       .  A
C2422      F2423   1.357       .  S
C2427      C2428   1.407       .  A
C2427      C2432   1.407       .  A
C2427      F2434   1.357       .  S
C2428      C2429   1.405       .  A
C2429      C2430   1.396       .  A
C2429      F2436   1.358       .  S
C2430      C2431   1.406       .  A
C2430      F2435   1.358       .  S
C2431      C2432   1.408       .  A
C2432      F2433   1.357       .  S
C2437      C2438   1.407       .  A
C2437      C2442   1.404       .  A
C2437      F2444   1.357       .  S
C2438      C2439   1.407       .  A
C2439      C2440   1.396       .  A
C2439      F2446   1.358       .  S
C2440      C2441   1.409       .  A
C2440      F2445   1.357       .  S
C2441      C2442   1.411       .  A
C2442      F2443   1.357       .  S
C2447      C2448   1.408       .  A
C2447      C2452   1.406       .  A
C2447      F2454   1.357       .  S
C2448      C2449   1.406       .  A
C2449      C2450   1.395       .  A
C2449      F2456   1.358       .  S
C2450      C2451   1.406       .  A
C2450      F2455   1.358       .  S
C2451      C2452   1.409       .  A
C2452      F2453   1.357       .  S
C2457      C2458   1.404       .  A
C2457      C2462   1.396       .  A
C2457      F2464   1.358       .  S
C2458      C2459   1.406       .  A
C2459      C2460   1.407       .  A
C2459      F2466   1.357       .  S
C2460      C2461   1.408       .  A
C2460      F2465   1.357       .  S
C2461      C2462   1.406       .  A
C2462      F2463   1.358       .  S
C2467      C2468   1.404       .  A
C2467      C2472   1.395       .  A
C2467      F2474   1.358       .  S
C2468      C2469   1.406       .  A
C2469      C2470   1.408       .  A
C2469      F2476   1.357       .  S
C2470      C2471   1.409       .  A
C2470      F2475   1.357       .  S
C2471      C2472   1.406       .  A
C2472      F2473   1.358       .  S
C2477      C2478   1.406       .  A
C2477      C2482   1.394   1_556  A
C2477      F2484   1.358       .  S
C2478      C2479   1.408       .  A
C2479      C2480   1.406   1_556  A
C2479      F2486   1.357       .  S
C2480      C2481   1.408       .  A
C2480      F2485   1.357       .  S
C2481      C2482   1.405       .  A
C2482      F2483   1.358       .  S
C2487      C2488   1.409       .  A
C2487      C2492   1.405       .  A
C2487      F2494   1.358       .  S
C2488      C2489   1.407       .  A
C2489      C2490   1.397       .  A
C2489      F2496   1.357       .  S
C2490      C2491   1.409       .  A
C2490      F2495   1.357       .  S
C2491      C2492   1.410       .  A
C2492      F2493   1.357       .  S
