geometry optimzed in LAMMPS
_audit_creation_date              2020-12-01 
_audit_creation_method            'lammps2cif' 
_symmetry_space_group_name_H-M    'P1' 
_symmetry_Int_Tables_number       1 
_symmetry_cell_setting            triclinic 
loop_ 
_symmetry_equiv_pos_as_xyz 
  x,y,z 
_cell_length_a                    27.97506671 
_cell_length_b                    28.29604941751972 
_cell_length_c                    28.516748609758753 
_cell_angle_alpha                 92.11347000181 
_cell_angle_beta                  90.45702182821096 
_cell_angle_gamma                 91.21426520998187 
loop_ 
_atom_site_label 
_atom_site_type_symbol 
_atom_site_fract_x 
_atom_site_fract_y 
_atom_site_fract_z 
_atom_site_charge 
C1          C  0.57800977  0.51889664  0.31221898     0.03300
C2          C  0.56043395  0.56401080  0.32263038    -0.12900
C3          C  0.53313370  0.58747750  0.28964750     0.00800
C4          C  0.52321344  0.56491145  0.24619103    -0.11400
C5          C  0.53860760  0.51897170  0.23633768     0.03300
C6          C  0.56720189  0.49619448  0.26870087    -0.10800
H7          H  0.56723998  0.58028696  0.35711112     0.08900
H8          H  0.50327783  0.58296799  0.21973513     0.06400
H9          H  0.58008619  0.46102237  0.26052446     0.06300
C10         C  0.33271682  0.47135824  0.76612438     0.03300
C11         C  0.34484252  0.49055782  0.81083663    -0.12900
C12         C  0.37389254  0.46491200  0.84046669     0.00800
C13         C  0.38989795  0.42015764  0.82606034    -0.11400
C14         C  0.37778879  0.40074541  0.78169288     0.03300
C15         C  0.34868670  0.42637521  0.75223328    -0.10800
H16         H  0.33320391  0.52550271  0.82180677     0.08900
H17         H  0.41253637  0.40073747  0.84928492     0.06400
H18         H  0.34062353  0.41257141  0.71703917     0.06300
C19         C  0.71911273  0.62238464  0.98182175     0.03300
C20         C  0.67065371  0.61442481  0.99114106    -0.12900
C21         C  0.64311396  0.58183100  0.96330536     0.00800
C22         C  0.66452817  0.55715387  0.92563607    -0.11400
C23         C  0.71349029  0.56392671  0.91683975     0.03300
C24         C  0.73981775  0.59805084  0.94375014    -0.10800
H25         H  0.65491723  0.63187906  0.02159818     0.08900
H26         H  0.64453321  0.52930534  0.90654681     0.06400
H27         H  0.77773350  0.60277852  0.93739984     0.06300
C28         C  0.41563058  0.75363605  0.90822767     0.03300
C29         C  0.42880905  0.70871991  0.92329519    -0.12900
C30         C  0.40469955  0.68768428  0.96079348     0.00800
C31         C  0.36715253  0.71226414  0.98290172    -0.11400
C32         C  0.35379265  0.75694593  0.96855388     0.03300
C33         C  0.37716006  0.77655257  0.93035511    -0.10800
H34         H  0.45926579  0.69141076  0.90763863     0.08900
H35         H  0.34917160  0.69745574  0.01268260     0.06400
H36         H  0.36645366  0.81090832  0.91896661     0.06300
C37         C  0.19831642  0.34921017  0.08808399     0.03300
C38         C  0.18002758  0.37177750  0.12856092    -0.12900
C39         C  0.20971344  0.39964916  0.15888477     0.00800
C40         C  0.25878489  0.40341992  0.14956799    -0.11400
C41         C  0.27779051  0.38143227  0.10917929     0.03300
C42         C  0.24746317  0.35358167  0.07905509    -0.10800
H43         H  0.14188718  0.37017884  0.13483630     0.08900
H44         H  0.28126306  0.42698225  0.17147205     0.06400
H45         H  0.26139321  0.33863952  0.04653510     0.06300
C46         C  0.49771400  0.21643111  0.16582373     0.03300
C47         C  0.53654644  0.19352360  0.14436172    -0.12900
C48         C  0.56240215  0.21469799  0.10852120     0.00800
C49         C  0.55029516  0.26005616  0.09523264    -0.11400
C50         C  0.51247514  0.28441711  0.11680980     0.03300
C51         C  0.48660153  0.26252101  0.15258877    -0.10800
H52         H  0.54598351  0.15841313  0.15463796     0.08900
H53         H  0.56948942  0.27569893  0.06660488     0.06400
H54         H  0.45622677  0.28010361  0.16812228     0.06300
Zr55       Zr  0.44182917  0.43859329  0.11760065     2.17500
O56         O  0.41733693  0.42103302  0.19719372    -0.51200
O57         O  0.47412431  0.35921653  0.12483044    -0.74400
O58         O  0.35826509  0.40956500  0.12200366    -0.81200
O59         O  0.55572154  0.50921504  0.15760220    -0.82900
O60         O  0.32725599  0.40393994  0.04813632    -0.78500
O61         O  0.48605436  0.47711172  0.18376977    -0.90200
O62         O  0.51273930  0.34006200  0.05734527    -0.76100
O63         O  0.43081510  0.40375423  0.04081855    -0.85600
O64         O  0.51831270  0.43863949  0.08093587    -0.85300
O65         O  0.38554270  0.48838343  0.07943456    -0.72100
O66         O  0.46698227  0.52019676  0.11439660    -0.84200
Zr67       Zr  0.47682813  0.53382064  0.95978864     2.26400
Zr68       Zr  0.37662604  0.45396390  0.00182649     2.06300
Zr69       Zr  0.54231951  0.51958087  0.07573135     2.10000
Zr70       Zr  0.50703645  0.40431161  0.00435917     1.78800
O71         O  0.56955678  0.59351816  0.11458752    -0.93000
O72         O  0.47027878  0.33703125  0.96092666    -0.40800
O73         O  0.53342341  0.48498600  0.99846846    -0.77400
O74         O  0.45228088  0.45155482  0.96331602    -0.96100
O75         O  0.40092248  0.53490766  0.99708139    -0.89400
O76         O  0.48827472  0.56936193  0.03629736    -0.92300
C77         C  0.49868350  0.33088694  0.09875808     1.01500
C78         C  0.52691827  0.49835973  0.19009365     1.14400
C79         C  0.32472559  0.39797196  0.09223228     1.05200
O80         O  0.34543533  0.38460582  0.95776846    -0.94400
O81         O  0.36108308  0.46805135  0.92055351    -0.90200
O82         O  0.42834819  0.50375581  0.89288075    -0.83300
C83         C  0.38760312  0.48223091  0.88740617     1.11800
O84         O  0.37877601  0.58608452  0.15112334    -0.96400
Zr85       Zr  0.41267299  0.56876677  0.07396247     1.88900
O86         O  0.44672766  0.61452253  0.95467415    -0.73100
O87         O  0.30048968  0.49436072  0.00302345    -0.52300
O88         O  0.32660041  0.57997882  0.06986909    -0.97000
O89         O  0.45019695  0.63705626  0.11534404    -0.54200
O90         O  0.40358182  0.63149268  0.01989037    -0.73600
C91         C  0.41952472  0.64161802  0.97941327     0.98800
O92         O  0.49967321  0.55387401  0.88034574    -0.62400
O93         O  0.61931786  0.48168334  0.08234176    -0.57200
O94         O  0.56228256  0.55431844  0.95204759    -0.93900
O95         O  0.59434199  0.56192686  0.02536062    -0.92300
O96         O  0.59202612  0.38782162  0.00872516    -0.92700
O97         O  0.54409204  0.39049621  0.92814836    -0.91400
C98         C  0.59652931  0.56572666  0.98096681     1.17600
H99         H  0.54160097  0.42202619  0.09884823     0.33600
H100        H  0.44942563  0.43560964  0.93293336     0.44400
H101        H  0.50154784  0.60104484  0.03454882     0.37900
H102        H  0.35524143  0.48936108  0.09544112     0.34400
H103        H  0.49508683  0.31256794  0.96024102     0.26200
H104        H  0.27879555  0.47371278  0.98333600     0.32100
H105        H  0.32273119  0.61429637  0.06585983     0.38100
H106        H  0.59393067  0.35316230  0.00311620     0.32500
H107        H  0.62869084  0.47407293  0.04957060     0.31400
H108        H  0.60279057  0.58772844  0.12473804     0.33100
H109        H  0.46549647  0.65588543  0.09079408     0.32000
H110        H  0.55261583  0.42248600  0.91749972     0.36000
H111        H  0.51421546  0.58609580  0.88307945     0.28800
H112        H  0.40565501  0.38771598  0.19570857     0.33000
H113        H  0.36387478  0.61738855  0.14904387     0.35900
H114        H  0.64180958  0.50741342  0.09305219     0.28500
H115        H  0.52627716  0.53284114  0.87162526     0.41300
H116        H  0.37416486  0.36894784  0.94514047     0.31400
H117        H  0.44552514  0.32465805  0.98214375     0.39000
H118        H  0.47721588  0.62393141  0.13292391     0.30900
H119        H  0.28837191  0.49127713  0.03531369     0.30900
H120        H  0.38856367  0.44001983  0.20334972     0.31200
C121        C  0.47757519  0.26296425  0.67242596     0.03300
C122        C  0.46221939  0.21707489  0.65845219    -0.12900
C123        C  0.48571293  0.19273406  0.62223591     0.00800
C124        C  0.52562126  0.21282122  0.60115651    -0.11400
C125        C  0.54099460  0.25879414  0.61400536     0.03300
C126        C  0.51642815  0.28388816  0.64938379    -0.10800
H127        H  0.43202007  0.20043255  0.67536474     0.08900
H128        H  0.54486497  0.19216613  0.57502041     0.06400
H129        H  0.52650814  0.32038519  0.65790914     0.06300
C130        C  0.43586366  0.72923447  0.38871355     0.03300
C131        C  0.39945246  0.70332787  0.41042896    -0.12900
C132        C  0.37704631  0.72146260  0.45065451     0.00800
C133        C  0.39153648  0.76587745  0.46957216    -0.11400
C134        C  0.42767603  0.79198674  0.44785938     0.03300
C135        C  0.44901454  0.77425180  0.40691206    -0.10800
H136        H  0.38945078  0.66817648  0.39687814     0.08900
H137        H  0.37469982  0.78016085  0.50098225     0.06400
H138        H  0.47657939  0.79490906  0.39004263     0.06300
C139        C  0.59643496  0.92705210  0.78906952     0.03300
C140        C  0.57419215  0.88764603  0.80865261    -0.12900
C141        C  0.53648895  0.86286738  0.78543256     0.00800
C142        C  0.52526308  0.87345273  0.73880998    -0.11400
C143        C  0.54905167  0.91127037  0.71724132     0.03300
C144        C  0.58429861  0.93811357  0.74292491    -0.10800
H145        H  0.58285237  0.87910319  0.84445298     0.08900
H146        H  0.49509834  0.85563642  0.72122831     0.06400
H147        H  0.59981915  0.96958815  0.72811232     0.06300
C148        C  0.71342080  0.84128996  0.48971201     0.03300
C149        C  0.73657410  0.86001193  0.45074015    -0.12900
C150        C  0.71834380  0.89864013  0.42802755     0.00800
C151        C  0.67371404  0.91576103  0.44118216    -0.11400
C152        C  0.64816542  0.89599308  0.47857396     0.03300
C153        C  0.66836720  0.85857855  0.50272308    -0.10800
H154        H  0.77127817  0.84711163  0.44033466     0.08900
H155        H  0.66031388  0.94630876  0.42385150     0.06400
H156        H  0.65093131  0.84564352  0.53364564     0.06300
C157        C  0.31121236  0.04840619  0.28716581     0.03300
C158        C  0.33599990  0.08446796  0.26479258    -0.12900
C159        C  0.37218471  0.11154353  0.28815435     0.00800
C160        C  0.38049954  0.10508289  0.33633763    -0.11400
C161        C  0.35475927  0.06979559  0.35985333     0.03300
C162        C  0.32019022  0.04175388  0.33482737    -0.10800
H163        H  0.33001516  0.08872098  0.22758694     0.08900
H164        H  0.41005270  0.12379592  0.35404746     0.06400
H165        H  0.30211482  0.01285893  0.35185153     0.06300
C166        C  0.18906435  0.14119818  0.57066761     0.03300
C167        C  0.23538496  0.12466692  0.56247946    -0.12900
C168        C  0.25438571  0.08944954  0.59043587     0.00800
C169        C  0.22677731  0.07194781  0.62743247    -0.11400
C170        C  0.18067762  0.08846258  0.63626544     0.03300
C171        C  0.16278889  0.12406633  0.60855670    -0.10800
H172        H  0.25493738  0.13650917  0.53227461     0.08900
H173        H  0.24006084  0.04339524  0.64783749     0.06400
H174        H  0.12686705  0.13643154  0.61461955     0.06300
Zr175      Zr  0.41035924  0.07516646  0.52160965     2.17500
O176        O  0.39728382  0.15736452  0.50272817    -0.51200
O177        O  0.32991648  0.08852302  0.55187306    -0.74400
O178        O  0.38384906  0.08295684  0.43914753    -0.81200
O179        O  0.48238192  0.11216692  0.63404563    -0.82900
O180        O  0.37614190  0.00835745  0.40732750    -0.78500
O181        O  0.45007029  0.13954926  0.56693265    -0.90200
O182        O  0.30744064  0.02596826  0.59461122    -0.76100
O183        O  0.36906038  0.00113783  0.51124514    -0.85600
O184        O  0.40794750  0.04043789  0.59683029    -0.85300
O185        O  0.45783310  0.03108598  0.46586659    -0.72100
O186        O  0.49193527  0.06569314  0.54662585    -0.84200
Zr187      Zr  0.49513573  0.90949673  0.55542705     2.26400
Zr188      Zr  0.41704942  0.95611105  0.45774503     2.06300
Zr189      Zr  0.48881673  0.02853483  0.62057040     2.10000
Zr190      Zr  0.36752570  0.96631267  0.58592671     1.78800
O191        O  0.56703742  0.06092559  0.64429394    -0.93000
O192        O  0.29650524  0.93005053  0.54845929    -0.40800
O193        O  0.44810162  0.95385519  0.61131012    -0.77400
O194        O  0.41260716  0.91911400  0.53204116    -0.96100
O195        O  0.49814442  0.94505907  0.48094994    -0.89400
O196        O  0.53617980  0.98380828  0.56643356    -0.92300
C197        C  0.30031175  0.06681814  0.57826706     1.01500
C198        C  0.47075933  0.14521924  0.60720666     1.14400
C199        C  0.37191634  0.05317214  0.40548962     1.05200
O200        O  0.34101437  0.92023105  0.43190993    -0.94400
O201        O  0.42650461  0.87326561  0.44115917    -0.90200
O202        O  0.46143832  0.84398605  0.50609072    -0.83300
C203        C  0.44018974  0.83934651  0.46596129     1.11800
O204        O  0.55607304  0.09707148  0.46112418    -0.96400
Zr205      Zr  0.53772064  0.01974874  0.49221318     1.88900
O206        O  0.57510834  0.89661064  0.52242828    -0.73100
O207        O  0.45378004  0.94771027  0.38075181    -0.52300
O208        O  0.55108629  0.01228820  0.40791150    -0.97000
O209        O  0.61121392  0.05473671  0.52580575    -0.54200
O210        O  0.59587019  0.95972926  0.47975387    -0.73600
C211        C  0.60341438  0.91853759  0.49476464     0.98800
O212        O  0.51266259  0.83206492  0.58568214    -0.62400
O213        O  0.45356653  0.04125030  0.69777674    -0.57200
O214        O  0.51888051  0.90067669  0.63821361    -0.93900
O215        O  0.52645481  0.97450091  0.67189065    -0.92300
O216        O  0.35268645  0.97246351  0.66992620    -0.92700
O217        O  0.34504834  0.89089380  0.61872502    -0.91400
C218        C  0.53063512  0.92958441  0.67263669     1.17600
H219        H  0.39240659  0.06057863  0.61972455     0.33600
H220        H  0.39483430  0.88953045  0.52922498     0.44400
H221        H  0.56798176  0.97974337  0.57882728     0.37900
H222        H  0.46060334  0.04617915  0.43613992     0.34400
H223        H  0.27110511  0.93316685  0.57229342     0.26200
H224        H  0.42750999  0.93609369  0.35958372     0.32100
H225        H  0.58627441  0.01286323  0.40434989     0.38100
H226        H  0.31744879  0.97343961  0.67263701     0.32500
H227        H  0.44637740  0.00916895  0.70893246     0.31400
H228        H  0.56271866  0.07343951  0.67683524     0.33100
H229        H  0.62844410  0.02826236  0.53948955     0.32000
H230        H  0.37551288  0.87392487  0.62117030     0.36000
H231        H  0.48137931  0.81539910  0.58843728     0.28800
H232        H  0.36395058  0.15831160  0.49089181     0.33000
H233        H  0.58786221  0.09425796  0.44637967     0.35900
H234        H  0.48033456  0.05337180  0.71806264     0.28500
H235        H  0.52936797  0.81472877  0.56007206     0.41300
H236        H  0.33115996  0.89997229  0.45785877     0.31400
H237        H  0.28725981  0.95205484  0.52392242     0.39000
H238        H  0.60060015  0.07411887  0.55324026     0.30900
H239        H  0.46055102  0.98043219  0.37115164     0.30900
H240        H  0.41748794  0.16331117  0.47511776     0.31200
C241        C  0.99264041  0.25348129  0.90503128     0.03300
C242        C  0.98189822  0.20675138  0.91777390    -0.12900
C243        C  0.00908220  0.18538261  0.95244580     0.00800
C244        C  0.04770592  0.21101776  0.97355146    -0.11400
C245        C  0.05893673  0.25741086  0.96172809     0.03300
C246        C  0.03123020  0.27851332  0.92731504    -0.10800
H247        H  0.95187522  0.18753713  0.90145575     0.08900
H248        H  0.06842143  0.19548433  0.00105942     0.06400
H249        H  0.03895442  0.31483992  0.91877472     0.06300
C250        C  0.22364545  0.86414852  0.08738488     0.03300
C251        C  0.24253191  0.88936357  0.12711041    -0.12900
C252        C  0.21349874  0.91887106  0.15504559     0.00800
C253        C  0.16457378  0.92134697  0.14412043    -0.11400
C254        C  0.14527990  0.89762537  0.10400924     0.03300
C255        C  0.17501485  0.86881271  0.07601658    -0.10800
H256        H  0.28034208  0.88752678  0.13518516     0.08900
H257        H  0.14214024  0.94435853  0.16521724     0.06400
H258        H  0.16079529  0.85168009  0.04412069     0.06300
C259        C  0.84711398  0.00734371  0.31369605     0.03300
C260        C  0.85902211  0.99083251  0.26838072    -0.12900
C261        C  0.89268369  0.01557084  0.24224774     0.00800
C262        C  0.91424583  0.05747048  0.26098466    -0.11400
C263        C  0.90274227  0.07489889  0.30618551     0.03300
C264        C  0.86869346  0.04962412  0.33210271    -0.10800
H265        H  0.84246531  0.95860620  0.25356914     0.08900
H266        H  0.94023247  0.07631313  0.24027843     0.06400
H267        H  0.85849426  0.06307872  0.36655136     0.06300
C268        C  0.92765201  0.71161431  0.15709666     0.03300
C269        C  0.93781269  0.75990322  0.15008091    -0.12900
C270        C  0.90701441  0.78605327  0.12235045     0.00800
C271        C  0.86503121  0.76437455  0.10416150    -0.11400
C272        C  0.85588043  0.71619901  0.10823030     0.03300
C273        C  0.88661737  0.68996547  0.13575847    -0.10800
H274        H  0.97077271  0.77605933  0.16373591     0.08900
H275        H  0.84064629  0.78438798  0.08325748     0.06400
H276        H  0.87962123  0.65245189  0.13912353     0.06300
C277        C  0.69220451  0.11267342  0.98573067     0.03300
C278        C  0.74073232  0.10685140  0.99661434    -0.12900
C279        C  0.76948247  0.07751690  0.96807683     0.00800
C280        C  0.74880567  0.05320681  0.92857684    -0.11400
C281        C  0.69997719  0.05797934  0.91780534     0.03300
C282        C  0.67311288  0.09009567  0.94494846    -0.10800
H283        H  0.75553467  0.12316018  0.02866840     0.08900
H284        H  0.76953294  0.02748910  0.90887416     0.06400
H285        H  0.63599899  0.09537317  0.93578712     0.06300
C286        C  0.06003476  0.97562964  0.75560351     0.03300
C287        C  0.04962902  0.98724909  0.80276454    -0.12900
C288        C  0.01923412  0.95774232  0.82827803     0.00800
C289        C  0.99932707  0.91641985  0.80681468    -0.11400
C290        C  0.00929260  0.90420689  0.75980957     0.03300
C291        C  0.04056456  0.93351798  0.73491648    -0.10800
H292        H  0.06445356  0.01944260  0.81934123     0.08900
H293        H  0.97504905  0.89446950  0.82648194     0.06400
H294        H  0.04952644  0.92375669  0.69901380     0.06300
Zr295      Zr  0.93405535  0.02983097  0.95687253     2.17500
O296        O  0.90550755  0.04581114  0.87805440    -0.51200
O297        O  0.96504677  0.11118062  0.94859839    -0.74400
O298        O  0.85022714  0.05509423  0.95449136    -0.81200
O299        O  0.03457864  0.94937387  0.90830720    -0.82900
O300        O  0.82259120  0.06025437  0.02919224    -0.78500
O301        O  0.97325214  0.99607120  0.88704999    -0.90200
O302        O  0.01847419  0.12689380  0.00742579    -0.76100
O303        O  0.93404099  0.06855384  0.03244146    -0.85600
O304        O  0.01417203  0.02792959  0.98620995    -0.85300
O305        O  0.87965715  0.98282795  0.00231888    -0.72100
O306        O  0.95458576  0.94780978  0.96092029    -0.84200
Zr307      Zr  0.97966434  0.94082304  0.11572400     2.26400
Zr308      Zr  0.88046893  0.02246789  0.07815766     2.06300
Zr309      Zr  0.03379621  0.94646740  0.99281808     2.10000
Zr310      Zr  0.01375257  0.06522397  0.06214502     1.78800
O311        O  0.05203661  0.86932100  0.95761712    -0.93000
O312        O  0.99237361  0.13830373  0.10400931    -0.40800
O313        O  0.03455762  0.98466042  0.06894557    -0.77400
O314        O  0.96005894  0.02305316  0.11034194    -0.96100
O315        O  0.90002666  0.94083719  0.08460986    -0.89400
O316        O  0.98129629  0.90108774  0.04022040    -0.92300
C317        C  0.99654438  0.13799065  0.97012094     1.01500
C318        C  0.00862482  0.96900600  0.87770052     1.14400
C319        C  0.81759395  0.06468142  0.98483573     1.05200
O320        O  0.86462249  0.10109075  0.11105450    -0.94400
O321        O  0.87652577  0.01928874  0.16231343    -0.90200
O322        O  0.93808196  0.97371699  0.18520021    -0.83300
C323        C  0.90244112  0.00079583  0.19361108     1.11800
O324        O  0.85583683  0.88202248  0.93793978    -0.96400
Zr325      Zr  0.90251490  0.90270386  0.00875085     1.88900
O326        O  0.94968848  0.86052009  0.12781119    -0.73100
O327        O  0.80246939  0.98934321  0.09814737    -0.52300
O328        O  0.81769465  0.88807789  0.02272795    -0.97000
O329        O  0.93144028  0.83454708  0.96320453    -0.54200
O330        O  0.90125880  0.84248630  0.06542876    -0.73600
C331        C  0.92032789  0.83291116  0.10474339     0.98800
O332        O  0.01820344  0.92143708  0.18949721    -0.62400
O333        O  0.11238714  0.98152688  0.97818138    -0.57200
O334        O  0.06528915  0.92274181  0.11743682    -0.93900
O335        O  0.09025022  0.90840604  0.04272416    -0.92300
O336        O  0.09926424  0.07020903  0.04749679    -0.92700
O337        O  0.05727982  0.08289079  0.13517870    -0.91400
C338        C  0.09682453  0.90934485  0.08726051     1.17600
H339        H  0.03608578  0.04360118  0.96552255     0.33600
H340        H  0.96226409  0.04032101  0.14015652     0.44400
H341        H  0.99265211  0.86916236  0.04239527     0.37900
H342        H  0.84782449  0.98018749  0.98916814     0.34400
H343        H  0.01875769  0.16102889  0.09770716     0.26200
H344        H  0.78258901  0.01717147  0.10541680     0.32100
H345        H  0.81449533  0.85357972  0.02697268     0.38100
H346        H  0.10752935  0.10436303  0.05096016     0.32500
H347        H  0.13230017  0.95451687  0.96819761     0.31400
H348        H  0.08565875  0.87240064  0.94737012     0.33100
H349        H  0.94962518  0.81585504  0.98565786     0.32000
H350        H  0.06172729  0.05164790  0.14894495     0.36000
H351        H  0.02437840  0.95204482  0.20667033     0.28800
H352        H  0.89437224  0.07882011  0.87963835     0.33000
H353        H  0.84349592  0.84931118  0.94168150     0.35900
H354        H  0.10848004  0.99974585  0.94947725     0.28500
H355        H  0.99335469  0.90510297  0.20785523     0.41300
H356        H  0.89397087  0.11035899  0.12904162     0.31400
H357        H  0.96473041  0.15011330  0.08635284     0.39000
H358        H  0.95596384  0.84773011  0.94222610     0.30900
H359        H  0.78926378  0.97581740  0.06813550     0.30900
H360        H  0.87619981  0.02596484  0.87297859     0.31200
C361        C  0.23911230  0.61202686  0.55077755     0.03300
C362        C  0.25839160  0.59714168  0.59296385    -0.12900
C363        C  0.23364805  0.56486420  0.62010724     0.00800
C364        C  0.18741438  0.54994974  0.60668675    -0.11400
C365        C  0.16707326  0.56571524  0.56512043     0.03300
C366        C  0.19288048  0.59679665  0.53696531    -0.10800
H367        H  0.29416497  0.60893001  0.60351981     0.08900
H368        H  0.16784925  0.52500052  0.62767374     0.06400
H369        H  0.17752317  0.60826773  0.50439812     0.06300
C370        C  0.67980653  0.36852731  0.51703967     0.03300
C371        C  0.65748669  0.39210719  0.48082662    -0.12900
C372        C  0.68093555  0.42902322  0.45853007     0.00800
C373        C  0.72778739  0.44184736  0.47213354    -0.11400
C374        C  0.75060259  0.41789646  0.50789865     0.03300
C375        C  0.72685681  0.38109456  0.53014373    -0.10800
H376        H  0.62113150  0.38231107  0.47054008     0.08900
H377        H  0.74642371  0.47040264  0.45510897     0.06400
H378        H  0.74478265  0.36263642  0.55765749     0.06300
C379        C  0.89612119  0.75154013  0.67086947     0.03300
C380        C  0.85333640  0.76611543  0.65082641    -0.12900
C381        C  0.82798572  0.73689599  0.61822145     0.00800
C382        C  0.84124714  0.68964176  0.61125537    -0.11400
C383        C  0.88238576  0.67305375  0.63367344     0.03300
C384        C  0.91009109  0.70458386  0.66292034    -0.10800
H385        H  0.84275360  0.80258210  0.65607670     0.08900
H386        H  0.82272989  0.66748776  0.58481975     0.06400
H387        H  0.94391169  0.69344005  0.67709343     0.06300
C388        C  0.01462642  0.23529557  0.38304638     0.03300
C389        C  0.00115977  0.28221920  0.39341484    -0.12900
C390        C  0.03040541  0.31257867  0.42281110     0.00800
C391        C  0.07171574  0.29419269  0.44355894    -0.11400
C392        C  0.08402191  0.24681210  0.43471972     0.03300
C393        C  0.05809260  0.21980539  0.40070083    -0.10800
H394        H  0.96671806  0.29395544  0.38134662     0.08900
H395        H  0.09070230  0.31489572  0.47076673     0.06400
H396        H  0.06798579  0.18343776  0.39327553     0.06300
C397        C  0.81843338  0.43458041  0.79635982     0.03300
C398        C  0.83131707  0.44730752  0.75083574    -0.12900
C399        C  0.86461929  0.42063985  0.72517471     0.00800
C400        C  0.88341310  0.37996029  0.74485626    -0.11400
C401        C  0.87229388  0.36766388  0.79069384     0.03300
C402        C  0.83874552  0.39448099  0.81567209    -0.10800
H403        H  0.81832917  0.47982975  0.73698259     0.08900
H404        H  0.90927776  0.35918638  0.72550359     0.06400
H405        H  0.83081432  0.38615192  0.85157348     0.06300
C406        C  0.10151125  0.52748954  0.27520814     0.03300
C407        C  0.08620300  0.51998750  0.32115725    -0.12900
C408        C  0.04990057  0.54742916  0.34127077     0.00800
C409        C  0.02957895  0.58325411  0.31490029    -0.11400
C410        C  0.04451806  0.59123483  0.26890854     0.03300
C411        C  0.08086299  0.56342045  0.24962293    -0.10800
H412        H  0.10141636  0.49158488  0.34047863     0.08900
H413        H  0.00027537  0.60342851  0.32922403     0.06400
H414        H  0.09156677  0.56830008  0.21367103     0.06300
Zr415      Zr  0.87731905  0.50804338  0.58322894     2.17500
O416        O  0.80254739  0.54007051  0.61287097    -0.51200
O417        O  0.86435302  0.46945700  0.65802540    -0.74400
O418        O  0.80761999  0.46735112  0.54708930    -0.81200
O419        O  0.94706698  0.62369570  0.61699861    -0.82900
O420        O  0.83221675  0.40509846  0.50113720    -0.78500
O421        O  0.87208600  0.59221593  0.60751334    -0.90200
O422        O  0.92624906  0.42093069  0.67018577    -0.76100
O423        O  0.90979658  0.43097029  0.57495619    -0.85600
O424        O  0.95296287  0.51119924  0.62262747    -0.85300
O425        O  0.88406811  0.49237235  0.49953352    -0.72100
O426        O  0.92443466  0.56563590  0.54345236    -0.84200
Zr427      Zr  0.04075299  0.47284820  0.49013688     2.26400
Zr428      Zr  0.91746701  0.41492982  0.49240472     2.06300
Zr429      Zr  0.00044433  0.56715446  0.58172523     2.10000
Zr430      Zr  0.98610970  0.43471672  0.61254480     1.78800
O431        O  0.02245983  0.64711628  0.55990171    -0.93000
O432        O  0.97869866  0.34912267  0.61757738    -0.40800
O433        O  0.03444905  0.49062585  0.57297167    -0.77400
O434        O  0.99393080  0.41536420  0.53103191    -0.96100
O435        O  0.96496320  0.47122930  0.45157509    -0.89400
O436        O  0.00971416  0.55065981  0.49935193    -0.92300
C437        C  0.88584877  0.43803423  0.68137466     1.01500
C438        C  0.90150338  0.62639303  0.61931146     1.14400
C439        C  0.79990321  0.43043193  0.52030585     1.05200
O440        O  0.90006372  0.33564656  0.51907821    -0.94400
O441        O  0.96729284  0.36135037  0.44743308    -0.90200
O442        O  0.04298691  0.39196801  0.45369019    -0.83300
C443        C  0.01250231  0.35877836  0.44120096     1.11800
O444        O  0.86069720  0.59194608  0.44859180    -0.96400
Zr445      Zr  0.93381458  0.54861885  0.46146875     1.88900
O446        O  0.05144425  0.50619642  0.41289270    -0.73100
O447        O  0.88361593  0.40091149  0.41402869    -0.52300
O448        O  0.89121543  0.52182356  0.39017472    -0.97000
O449        O  0.94904093  0.63377764  0.45963612    -0.54200
O450        O  0.99077265  0.55590279  0.39920657    -0.73600
C451        C  0.02980214  0.53598055  0.38761982     0.98800
O452        O  0.12195513  0.44426573  0.48134850    -0.62400
O453        O  0.02910567  0.57887150  0.66226495    -0.57200
O454        O  0.11016244  0.51737348  0.52305764    -0.93900
O455        O  0.08575088  0.57328244  0.57680976    -0.92300
O456        O  0.02532625  0.46211594  0.68542684    -0.92700
O457        O  0.06247761  0.39753413  0.62607329    -0.91400
C458        C  0.11785818  0.55148687  0.55351874     1.17600
H459        H  0.94980585  0.52058679  0.65537057     0.33600
H460        H  0.00772359  0.38438755  0.52971462     0.44400
H461        H  0.03113963  0.57368260  0.48607737     0.37900
H462        H  0.85391439  0.49359017  0.48302939     0.34400
H463        H  0.98484313  0.34298599  0.65103583     0.26200
H464        H  0.86760608  0.36941435  0.41497006     0.32100
H465        H  0.90100761  0.54436668  0.36611164     0.38100
H466        H  0.01591338  0.43850607  0.70861078     0.32500
H467        H  0.05454802  0.55540045  0.66557750     0.31400
H468        H  0.03358190  0.66331607  0.58950102     0.33100
H469        H  0.98403301  0.63765033  0.45589005     0.32000
H470        H  0.07992968  0.40067651  0.59623346     0.36000
H471        H  0.12282362  0.41481427  0.49902755     0.28800
H472        H  0.78423007  0.51280294  0.62488538     0.33000
H473        H  0.86625807  0.60989739  0.41990070     0.35900
H474        H  0.04633263  0.60981938  0.66284360     0.28500
H475        H  0.12487515  0.43394292  0.44795345     0.41300
H476        H  0.93172249  0.32174694  0.52451085     0.31400
H477        H  0.94414692  0.34195695  0.61303024     0.39000
H478        H  0.94290233  0.64580030  0.49203372     0.30900
H479        H  0.85714576  0.42344057  0.41193136     0.30900
H480        H  0.78445758  0.54944495  0.58482454     0.31200
C481        C  0.97853817  0.81955541  0.75785348    -0.21100
C482        C  0.98418114  0.86306534  0.73574197    -0.09200
C483        C  0.96319731  0.86794889  0.69125117     0.29700
C484        C  0.93643136  0.83083454  0.67015516    -0.21100
C485        C  0.92898789  0.78808662  0.69290739    -0.09200
C486        C  0.95141784  0.78218846  0.73651222     0.29700
F487        F  0.94555959  0.74118828  0.75923175    -0.19700
H488        H  0.99465508  0.81472785  0.79194854     0.18000
H489        H  0.92046291  0.83604185  0.63608859     0.18100
F490        F  0.96615691  0.90952829  0.66905877    -0.19700
C491        C  0.97661805  0.69832827  0.22929591    -0.21100
C492        C  0.96113277  0.68285683  0.18421658    -0.09200
C493        C  0.97664283  0.63902349  0.16587580     0.29700
C494        C  0.00458283  0.61014809  0.19320622    -0.21100
C495        C  0.01837639  0.62451826  0.23916587    -0.09200
C496        C  0.00501795  0.66954012  0.25659075     0.29700
F497        F  0.01944143  0.68576182  0.29991134    -0.19700
H498        H  0.96567660  0.73226785  0.24384573     0.18000
H499        H  0.01433134  0.57580857  0.17871353     0.18100
F500        F  0.96491090  0.62410772  0.12138476    -0.19700
C501        C  0.93571845  0.15847884  0.29956360    -0.21100
C502        C  0.92740775  0.11841192  0.32672297    -0.09200
C503        C  0.94488696  0.11947880  0.37316264     0.29700
C504        C  0.97038285  0.15899698  0.39142839    -0.21100
C505        C  0.98035903  0.19821609  0.36391685    -0.09200
C506        C  0.96203571  0.19804553  0.31789776     0.29700
F507        F  0.97150667  0.23487584  0.29003280    -0.19700
H508        H  0.92250066  0.15881609  0.26378645     0.18000
H509        H  0.98418230  0.15820488  0.42697941     0.18100
F510        F  0.94002272  0.08122075  0.40022468    -0.19700
C511        C  0.95179591  0.33384705  0.80954269    -0.21100
C512        C  0.90184043  0.33274467  0.81517279    -0.09200
C513        C  0.88183331  0.30163890  0.84747216     0.29700
C514        C  0.91144897  0.27453152  0.87521795    -0.21100
C515        C  0.96150623  0.27769143  0.87127681    -0.09200
C516        C  0.98129722  0.30660260  0.83700897     0.29700
F517        F  0.02929221  0.30924201  0.83053259    -0.19700
H518        H  0.96846906  0.35754646  0.78526480     0.18000
H519        H  0.89520628  0.25247354  0.90120508     0.18100
F520        F  0.83375733  0.29804185  0.85292803    -0.19700
C521        C  0.18338702  0.21219737  0.51942651    -0.21100
C522        C  0.16424326  0.16926639  0.53530648    -0.09200
C523        C  0.12023960  0.15222702  0.51695331     0.29700
C524        C  0.09517792  0.17807484  0.48493697    -0.21100
C525        C  0.11364289  0.22105163  0.46870409    -0.09200
C526        C  0.15811489  0.23820344  0.48646583     0.29700
F527        F  0.17726631  0.27945229  0.47166251    -0.19700
H528        H  0.21748442  0.22573390  0.53293450     0.18000
H529        H  0.06062408  0.16423410  0.47305531     0.18100
F530        F  0.10159208  0.10983556  0.52940804    -0.19700
C531        C  0.13471280  0.02487446  0.74320149    -0.21100
C532        C  0.08975648  0.00778229  0.72696747    -0.09200
C533        C  0.07385210  0.02038431  0.68225580     0.29700
C534        C  0.10295110  0.04792188  0.65391206    -0.21100
C535        C  0.14867433  0.06352016  0.66925623    -0.09200
C536        C  0.16411000  0.05221641  0.71453674     0.29700
F537        F  0.20764583  0.06745914  0.73093766    -0.19700
H538        H  0.14765151  0.01586665  0.77756384     0.18000
H539        H  0.09022245  0.05580558  0.61914735     0.18100
F540        F  0.03002761  0.00600291  0.66585313    -0.19700
C541        C  0.24754742  0.03051130  0.22682322    -0.21100
C542        C  0.28159754  0.01400294  0.25830253    -0.09200
C543        C  0.29171178  0.96539853  0.25708787     0.29700
C544        C  0.26852866  0.93429239  0.22446852    -0.21100
C545        C  0.23515346  0.95105251  0.19228248    -0.09200
C546        C  0.22481485  0.99963489  0.19395502     0.29700
F547        F  0.19510042  0.01796229  0.16178541    -0.19700
H548        H  0.23994051  0.06788022  0.22648661     0.13600
H549        H  0.27749690  0.89722196  0.22359478     0.18100
F550        F  0.32630334  0.94850438  0.28520435    -0.19700
C551        C  0.74951589  0.74670617  0.57515859    -0.21100
C552        C  0.79755420  0.76012042  0.58361737    -0.09200
C553        C  0.81755172  0.79789915  0.55931426     0.29700
C554        C  0.78963407  0.82359445  0.52963518    -0.21100
C555        C  0.74134173  0.81128738  0.52126196    -0.09200
C556        C  0.72142358  0.77210452  0.54398660     0.29700
F557        F  0.67533039  0.75814163  0.53575484    -0.19700
H558        H  0.73373747  0.71722344  0.59311745     0.18000
H559        H  0.80611069  0.85393663  0.51364967     0.18100
F560        F  0.86454600  0.81020989  0.56435120    -0.19700
C561        C  0.79441367  0.94302059  0.41589788    -0.21100
C562        C  0.75030246  0.92615822  0.39752540    -0.09200
C563        C  0.73788516  0.93594005  0.35110150     0.29700
C564        C  0.76941173  0.96231747  0.32370106    -0.21100
C565        C  0.81342037  0.97961941  0.34245850    -0.09200
C566        C  0.82571678  0.96928125  0.38877562     0.29700
F567        F  0.86873555  0.98331348  0.40742390    -0.19700
H568        H  0.80466200  0.93577531  0.45160287     0.18000
H569        H  0.75935839  0.96952636  0.28795189     0.18100
F570        F  0.69598944  0.91910839  0.33206772    -0.19700
C571        C  0.60641503  0.97233782  0.86513415    -0.21100
C572        C  0.62455024  0.96088812  0.82047932    -0.09200
C573        C  0.66831566  0.98196568  0.80737319     0.29700
C574        C  0.69323770  0.01347412  0.83883148    -0.21100
C575        C  0.67463228  0.02473014  0.88356284    -0.09200
C576        C  0.63111262  0.00302849  0.89636220     0.29700
F577        F  0.61274192  0.01020585  0.93986817    -0.19700
H578        H  0.57260106  0.95736882  0.87621818     0.18000
H579        H  0.72682817  0.02929113  0.82816971     0.18100
F580        F  0.68741013  0.97133743  0.76478793    -0.19700
C581        C  0.31512665  0.61957969  0.50835066    -0.21100
C582        C  0.27076284  0.63883466  0.51995093    -0.09200
C583        C  0.26052472  0.68497319  0.50710080     0.29700
C584        C  0.29516673  0.71184865  0.48413041    -0.21100
C585        C  0.34005772  0.69283952  0.47374923    -0.09200
C586        C  0.34960147  0.64624984  0.48572749     0.29700
F587        F  0.39305390  0.62723189  0.47759560    -0.19700
H588        H  0.32368182  0.58416514  0.51846036     0.18000
H589        H  0.28725374  0.74765701  0.47489470     0.18100
F590        F  0.21829999  0.70475236  0.51886186    -0.19700
C591        C  0.61371373  0.31138387  0.61503003    -0.21100
C592        C  0.58149841  0.28129274  0.58960682    -0.09200
C593        C  0.58673199  0.27541683  0.54062104     0.29700
C594        C  0.62211355  0.30079692  0.51777651    -0.21100
C595        C  0.65166207  0.33364609  0.54283325    -0.09200
C596        C  0.64806986  0.33793772  0.59188271     0.29700
F597        F  0.67482582  0.37061169  0.61702793    -0.19700
H598        H  0.61098323  0.31593047  0.65278094     0.18000
H599        H  0.62443840  0.29704405  0.47991176     0.18100
F600        F  0.55551886  0.24824328  0.51411268    -0.19700
C601        C  0.44981355  0.21158078  0.24057388    -0.21100
C602        C  0.46645054  0.19011362  0.19856278    -0.09200
C603        C  0.45242482  0.14291589  0.18743542     0.29700
C604        C  0.42326379  0.11795049  0.21760760    -0.21100
C605        C  0.40599371  0.13927929  0.25922400    -0.09200
C606        C  0.42001954  0.18633970  0.27087288     0.29700
F607        F  0.40399064  0.20822715  0.31067761    -0.19700
H608        H  0.46003446  0.24783930  0.24999207     0.18000
H609        H  0.41359332  0.08158659  0.20794171     0.18100
F610        F  0.46532355  0.12112287  0.14638540    -0.19700
C611        C  0.58489573  0.14259176  0.06161055    -0.21100
C612        C  0.59791439  0.18742205  0.08075766    -0.09200
C613        C  0.64305360  0.20694414  0.06997864     0.29700
C614        C  0.67386842  0.18240511  0.03960009    -0.21100
C615        C  0.66008211  0.13821712  0.01908156    -0.09200
C616        C  0.61535851  0.11826467  0.03109179     0.29700
F617        F  0.60095790  0.07498591  0.01366873    -0.19700
H618        H  0.55027894  0.12689610  0.06919234     0.18000
H619        H  0.70813689  0.19840113  0.03131913     0.18100
F620        F  0.65733264  0.24970668  0.08885627    -0.19700
C621        C  0.12285841  0.35013729  0.04036523    -0.21100
C622        C  0.16488064  0.32680742  0.05250215    -0.09200
C623        C  0.17377487  0.28238660  0.03093778     0.29700
C624        C  0.14055426  0.26148634  0.99909079    -0.21100
C625        C  0.09741245  0.28387091  0.98871026    -0.09200
C626        C  0.08926601  0.32889123  0.00926631     0.29700
F627        F  0.04754224  0.35116228  0.00183640    -0.19700
H628        H  0.11543844  0.38470803  0.05584137     0.18000
H629        H  0.14773900  0.22678613  0.98377118     0.18100
F630        F  0.21313293  0.25795778  0.04252987    -0.19700
C631        C  0.19802118  0.48003086  0.19525057    -0.21100
C632        C  0.18772258  0.43118292  0.19487004    -0.09200
C633        C  0.15251557  0.41397807  0.22511845     0.29700
C634        C  0.12631518  0.44540250  0.25317989    -0.21100
C635        C  0.13474928  0.49446158  0.25151871    -0.09200
C636        C  0.17189905  0.51143832  0.22333826     0.29700
F637        F  0.18200287  0.55850925  0.22194510    -0.19700
H638        H  0.22474860  0.49417691  0.17200553     0.18000
H639        H  0.09778098  0.43147452  0.27447085     0.18100
F640        F  0.14250169  0.36689920  0.22643806    -0.19700
C641        C  0.45671968  0.82804826  0.88523756    -0.21100
C642        C  0.44540615  0.78028334  0.87439090    -0.09200
C643        C  0.46306072  0.75966993  0.83227124     0.29700
C644        C  0.49180467  0.78657715  0.80232360    -0.21100
C645        C  0.50354964  0.83409453  0.81416938    -0.09200
C646        C  0.48483186  0.85465839  0.85559316     0.29700
F647        F  0.49377478  0.90090088  0.86762847    -0.19700
H648        H  0.44434837  0.84497457  0.91745885     0.18000
H649        H  0.50559031  0.77016107  0.77044835     0.18100
F650        F  0.45211457  0.71397369  0.81974203    -0.19700
C651        C  0.27459678  0.76515598  0.00923370    -0.21100
C652        C  0.31891065  0.78507593  0.99655439    -0.09200
C653        C  0.33102035  0.83126709  0.01323594     0.29700
C654        C  0.29976024  0.85657543  0.04223473    -0.21100
C655        C  0.25570493  0.83661050  0.05550040    -0.09200
C656        C  0.24309701  0.79067050  0.03814964     0.29700
F657        F  0.20112374  0.76978304  0.05039582    -0.19700
H658        H  0.26454173  0.72961370  0.99697012     0.18000
H659        H  0.31017205  0.89200844  0.05452499     0.18100
F660        F  0.37405964  0.85132234  0.00317483    -0.19700
C661        C  0.74975054  0.64081601  0.06347256    -0.21100
C662        C  0.75019629  0.65033724  0.01531830    -0.09200
C663        C  0.78415572  0.68278794  0.99882329     0.29700
C664        C  0.81791217  0.70390995  0.02949617    -0.21100
C665        C  0.81860274  0.69336614  0.07733916    -0.09200
C666        C  0.78389506  0.66194648  0.09429206     0.29700
F667        F  0.78308558  0.65170950  0.14040249    -0.19700
H668        H  0.72413649  0.61556123  0.07688061     0.18000
H669        H  0.84440098  0.72795908  0.01552542     0.18100
F670        F  0.78519722  0.69351537  0.95282046    -0.19700
C671        C  0.72248386  0.51881669  0.83981495    -0.21100
C672        C  0.73923437  0.53040746  0.88545978    -0.09200
C673        C  0.78068737  0.50878542  0.90188163     0.29700
C674        C  0.80590542  0.47804848  0.87260100    -0.21100
C675        C  0.78985481  0.46684390  0.82667971    -0.09200
C676        C  0.74753205  0.48719277  0.81055850     0.29700
F677        F  0.72992929  0.47578046  0.76703222    -0.19700
H678        H  0.69019790  0.53445195  0.82679856     0.18000
H679        H  0.83844851  0.46319465  0.88595998     0.18100
F680        F  0.79632970  0.51642092  0.94679472    -0.19700
C681        C  0.32834419  0.50233649  0.68655481    -0.21100
C682        C  0.30795769  0.49914128  0.73109936    -0.09200
C683        C  0.26308960  0.51892583  0.73979220     0.29700
C684        C  0.23859898  0.54062757  0.70364781    -0.21100
C685        C  0.25891333  0.54289777  0.65888080    -0.09200
C686        C  0.30398961  0.52342212  0.65064068     0.29700
F687        F  0.32372585  0.52306267  0.60725945    -0.19700
H688        H  0.36291272  0.48728016  0.67921555     0.18000
H689        H  0.20381905  0.55540729  0.71042216     0.18100
F690        F  0.24225741  0.51551874  0.78237781    -0.19700
C691        C  0.45078783  0.35362535  0.76840764    -0.21100
C692        C  0.40115375  0.35775552  0.76285167    -0.09200
C693        C  0.37602739  0.32464600  0.73343430     0.29700
C694        C  0.40092489  0.29167832  0.70607915    -0.21100
C695        C  0.45107476  0.29081837  0.70816310    -0.09200
C696        C  0.47558943  0.32029880  0.74153635     0.29700
F697        F  0.52379842  0.31843752  0.74663194    -0.19700
H698        H  0.47100191  0.37837458  0.79109947     0.18000
H699        H  0.38112934  0.26888643  0.68114981     0.18100
F700        F  0.32768777  0.32581841  0.72926007    -0.19700
C701        C  0.67746996  0.46074373  0.37792797    -0.21100
C702        C  0.65566322  0.45386657  0.42143129    -0.09200
C703        C  0.60850629  0.46873005  0.42852942     0.29700
C704        C  0.58342205  0.48903510  0.39239829    -0.21100
C705        C  0.60480647  0.49508119  0.34871387    -0.09200
C706        C  0.65216266  0.48118839  0.34163987     0.29700
F707        F  0.67412595  0.48840262  0.30016850    -0.19700
H708        H  0.71375258  0.44953526  0.37184787     0.18000
H709        H  0.54712545  0.50024555  0.39851056     0.18100
F710        F  0.58684860  0.46421709  0.47062741    -0.19700
C711        C  0.53715331  0.66614034  0.33196641    -0.21100
C712        C  0.51148649  0.63323887  0.30290200    -0.09200
C713        C  0.46290472  0.64113090  0.29314261     0.29700
C714        C  0.43948691  0.67757445  0.31687538    -0.21100
C715        C  0.46364213  0.70565592  0.35137157    -0.09200
C716        C  0.51341295  0.70192948  0.35649451     0.29700
F717        F  0.53807512  0.72867472  0.38937930    -0.19700
H718        H  0.57489697  0.66167685  0.33884534     0.18000
H719        H  0.40123955  0.68061366  0.31195434     0.18100
F720        F  0.43640022  0.61050553  0.26535348    -0.19700
loop_ 
_geom_bond_atom_site_label_1 
_geom_bond_atom_site_label_2 
_geom_bond_distance 
_geom_bond_site_symmetry_2 
_ccdc_geom_bond_type 
C1            C2   1.400       .  A
C1            C6   1.404       .  A
C1          C705   1.470       .  S
C2            C3   1.402       .  A
C2            H7   1.084       .  S
C3            C4   1.396       .  A
C3          C712   1.479       .  S
C4            C5   1.397       .  A
C4            H8   1.084       .  S
C5            C6   1.400       .  A
C5           C78   1.454       .  S
C6            H9   1.084       .  S
C10          C11   1.404       .  A
C10          C15   1.402       .  A
C10         C682   1.472       .  S
C11          C12   1.400       .  A
C11          H16   1.084       .  S
C12          C13   1.401       .  A
C12          C83   1.454       .  S
C13          C14   1.397       .  A
C13          H17   1.085       .  S
C14          C15   1.398       .  A
C14         C692   1.479       .  S
C15          H18   1.084       .  S
C19          C20   1.399       .  A
C19          C24   1.400       .  A
C19         C662   1.482   1_556  S
C20          C21   1.407       .  A
C20          H25   1.084   1_556  S
C21          C22   1.405       .  A
C21          C98   1.470       .  S
C22          C23   1.405       .  A
C22          H26   1.084       .  S
C23          C24   1.404       .  A
C23         C672   1.482       .  S
C24          H27   1.084       .  S
C28          C29   1.412       .  A
C28          C33   1.410       .  A
C28         C642   1.494       .  S
C29          C30   1.412       .  A
C29          H34   1.083       .  S
C30          C31   1.412       .  A
C30          C91   1.491       .  S
C31          C32   1.400       .  A
C31          H35   1.083   1_556  S
C32          C33   1.401       .  A
C32         C652   1.491       .  S
C33          H36   1.084       .  S
C37          C38   1.404       .  A
C37          C42   1.405       .  A
C37         C622   1.490       .  S
C38          C39   1.404       .  A
C38          H43   1.084       .  S
C39          C40   1.403       .  A
C39         C632   1.481       .  S
C40          C41   1.403       .  A
C40          H44   1.084       .  S
C41          C42   1.410       .  A
C41          C79   1.476       .  S
C42          H45   1.084       .  S
C46          C47   1.409       .  A
C46          C51   1.411       .  A
C46         C602   1.493       .  S
C47          C48   1.402       .  A
C47          H52   1.083       .  S
C48          C49   1.399       .  A
C48         C612   1.486       .  S
C49          C50   1.408       .  A
C49          H53   1.084       .  S
C50          C51   1.410       .  A
C50          C77   1.487       .  S
C51          H54   1.083       .  S
Zr55         O56   2.442       .  S
Zr55         O57   2.454       .  S
Zr55         O58   2.467       .  S
Zr55         O61   2.456       .  S
Zr55         O63   2.383       .  S
Zr55         O64   2.389       .  S
Zr55         O65   2.414       .  S
Zr55         O66   2.405       .  S
O56         H112   0.991       .  S
O56         H120   0.990       .  S
O57          C77   1.286       .  A
O58          C79   1.289       .  A
O59         Zr69   2.391       .  S
O59          C78   1.275       .  A
O60         Zr68   2.396       .  S
O60          C79   1.277       .  A
O61          C78   1.289       .  A
O62         Zr70   2.413       .  S
O62          C77   1.282       .  A
O63         Zr68   2.395       .  S
O63         Zr70   2.380       .  S
O64         Zr69   2.383       .  S
O64         Zr70   2.373       .  S
O64          H99   0.965       .  S
O65         Zr68   2.394       .  S
O65         Zr85   2.393       .  S
O65         H102   0.966       .  S
O66         Zr69   2.386       .  S
O66         Zr85   2.388       .  S
Zr67         O92   2.442       .  S
Zr67         O86   2.459       .  S
Zr67         O94   2.462       .  S
Zr67         O82   2.448       .  S
Zr67         O73   2.410       .  S
Zr67         O74   2.419       .  S
Zr67         O75   2.383       .  S
Zr67         O76   2.385   1_556  S
Zr68         O87   2.438       .  S
Zr68         O80   2.433   1_554  S
Zr68         O81   2.404   1_554  S
Zr68         O74   2.393   1_554  S
Zr68         O75   2.384   1_554  S
Zr69         O71   2.436       .  S
Zr69         O93   2.436       .  S
Zr69         O95   2.388       .  S
Zr69         O73   2.387   1_554  S
Zr69         O76   2.391       .  S
Zr70         O96   2.436       .  S
Zr70         O97   2.437   1_554  S
Zr70         O72   2.437   1_554  S
Zr70         O73   2.396   1_554  S
Zr70         O74   2.383   1_554  S
O71         H108   0.990       .  S
O72         H103   0.990       .  S
O72         H117   0.990       .  S
O74         H100   0.964       .  S
O75         Zr85   2.378   1_556  S
O76         Zr85   2.380       .  S
O76         H101   0.966       .  S
O80         H116   0.990       .  S
O81          C83   1.277       .  A
O82          C83   1.287       .  A
O84         Zr85   2.440       .  S
O84         H113   0.990       .  S
Zr85         O88   2.438       .  S
Zr85         O89   2.440       .  S
Zr85         O90   2.410       .  S
O86          C91   1.288       .  A
O87         H104   0.990   1_554  S
O87         H119   0.990       .  S
O88         H105   0.990       .  S
O89         H109   0.990       .  S
O89         H118   0.990       .  S
O90          C91   1.281   1_554  A
O92         H111   0.991       .  S
O92         H115   0.990       .  S
O93         H107   0.990       .  S
O93         H114   0.990       .  S
O94          C98   1.287       .  A
O95          C98   1.276   1_554  A
O96         H106   0.990       .  S
O97         H110   0.990       .  S
C121        C122   1.402       .  A
C121        C126   1.406       .  A
C121        C695   1.479       .  S
C122        C123   1.397       .  A
C122        H127   1.084       .  S
C123        C124   1.393       .  A
C123        C198   1.448       .  S
C124        C125   1.396       .  A
C124        H128   1.084       .  S
C125        C126   1.405       .  A
C125        C592   1.479       .  S
C126        H129   1.083       .  S
C130        C131   1.404       .  A
C130        C135   1.398       .  A
C130        C715   1.472       .  S
C131        C132   1.398       .  A
C131        H136   1.084       .  S
C132        C133   1.400       .  A
C132        C585   1.475       .  S
C133        C134   1.401       .  A
C133        H137   1.084       .  S
C134        C135   1.397       .  A
C134        C203   1.453       .  S
C135        H138   1.084       .  S
C139        C140   1.402       .  A
C139        C144   1.404       .  A
C139        C572   1.494       .  S
C140        C141   1.402       .  A
C140        H145   1.084       .  S
C141        C142   1.408       .  A
C141        C645   1.488       .  S
C142        C143   1.411       .  A
C142        H146   1.084       .  S
C143        C144   1.415       .  A
C143        C218   1.484       .  S
C144        H147   1.084       .  S
C148        C149   1.406       .  A
C148        C153   1.409       .  A
C148        C555   1.488       .  S
C149        C150   1.395       .  A
C149        H154   1.084       .  S
C150        C151   1.398       .  A
C150        C562   1.482       .  S
C151        C152   1.414       .  A
C151        H155   1.084       .  S
C152        C153   1.410       .  A
C152        C211   1.486       .  S
C153        H156   1.083       .  S
C157        C158   1.398       .  A
C157        C162   1.400       .  A
C157        C542   1.486       .  S
C158        C159   1.405       .  A
C158        H163   1.084       .  S
C159        C160   1.411       .  A
C159        C605   1.490       .  S
C160        C161   1.411       .  A
C160        H164   1.084       .  S
C161        C162   1.410       .  A
C161        C199   1.480       .  S
C162        H165   1.084       .  S
C166        C167   1.405       .  A
C166        C171   1.407       .  A
C166        C522   1.484       .  S
C167        C168   1.409       .  A
C167        H172   1.084       .  S
C168        C169   1.411       .  A
C168        C197   1.486       .  S
C169        C170   1.403       .  A
C169        H173   1.083       .  S
C170        C171   1.401       .  A
C170        C535   1.490       .  S
C171        H174   1.084       .  S
Zr175       O176   2.441       .  S
Zr175       O177   2.448       .  S
Zr175       O178   2.479       .  S
Zr175       O181   2.437       .  S
Zr175       O183   2.378       .  S
Zr175       O184   2.393       .  S
Zr175       O185   2.409       .  S
Zr175       O186   2.409       .  S
O176        H232   0.990       .  S
O176        H240   0.990       .  S
O177        C197   1.285       .  A
O178        C199   1.291       .  A
O179       Zr189   2.394       .  S
O179        C198   1.276       .  A
O180       Zr188   2.401   1_545  S
O180        C199   1.279       .  A
O181        C198   1.285       .  A
O182       Zr190   2.415   1_545  S
O182        C197   1.281       .  A
O183       Zr188   2.391   1_545  S
O183       Zr190   2.380   1_545  S
O184       Zr189   2.391       .  S
O184       Zr190   2.371   1_545  S
O184        H219   0.963       .  S
O185       Zr188   2.390   1_545  S
O185       Zr205   2.384       .  S
O185        H222   0.966       .  S
O186       Zr189   2.392       .  S
O186       Zr205   2.386       .  S
Zr187       O212   2.442       .  S
Zr187       O206   2.463       .  S
Zr187       O214   2.470       .  S
Zr187       O202   2.453       .  S
Zr187       O193   2.409       .  S
Zr187       O194   2.422       .  S
Zr187       O195   2.385       .  S
Zr187       O196   2.384       .  S
Zr188       O207   2.437       .  S
Zr188       O200   2.434       .  S
Zr188       O201   2.395       .  S
Zr188       O194   2.401       .  S
Zr188       O195   2.388       .  S
Zr189       O191   2.436       .  S
Zr189       O213   2.437       .  S
Zr189       O215   2.408   1_545  S
Zr189       O193   2.384   1_545  S
Zr189       O196   2.388   1_545  S
Zr190       O216   2.435       .  S
Zr190       O217   2.434       .  S
Zr190       O192   2.437       .  S
Zr190       O193   2.399       .  S
Zr190       O194   2.385       .  S
O191        H228   0.990       .  S
O192        H223   0.990       .  S
O192        H237   0.990       .  S
O194        H220   0.965       .  S
O195       Zr205   2.375   1_565  S
O196       Zr205   2.382   1_565  S
O196        H221   0.965       .  S
O200        H236   0.990       .  S
O201        C203   1.276       .  A
O202        C203   1.286       .  A
O204       Zr205   2.437       .  S
O204        H233   0.990       .  S
Zr205       O208   2.438       .  S
Zr205       O209   2.437       .  S
Zr205       O210   2.396   1_545  S
O206        C211   1.288       .  A
O207        H224   0.990       .  S
O207        H239   0.990       .  S
O208        H225   0.990       .  S
O209        H229   0.990       .  S
O209        H238   0.990       .  S
O210        C211   1.278       .  A
O212        H231   0.990       .  S
O212        H235   0.991       .  S
O213        H227   0.990       .  S
O213        H234   0.990       .  S
O214        C218   1.290       .  A
O215        C218   1.280       .  A
O216        H226   0.990       .  S
O217        H230   0.990       .  S
C241        C242   1.411       .  A
C241        C246   1.412   1_655  A
C241        C515   1.488       .  S
C242        C243   1.405   1_655  A
C242        H247   1.083       .  S
C243        C244   1.407       .  A
C243        C317   1.486   1_455  S
C244        C245   1.397       .  A
C244        H248   1.083   1_556  S
C245        C246   1.404       .  A
C245        C625   1.490       .  S
C246        H249   1.083       .  S
C250        C251   1.409       .  A
C250        C255   1.406       .  A
C250        C655   1.493       .  S
C251        C252   1.408       .  A
C251        H256   1.083       .  S
C252        C253   1.405       .  A
C252        C545   1.490       .  S
C253        C254   1.403       .  A
C253        H257   1.084       .  S
C254        C255   1.409       .  A
C254        C338   1.482       .  S
C255        H258   1.084       .  S
C259        C260   1.403   1_545  A
C259        C264   1.410       .  A
C259        C565   1.485   1_545  S
C260        C261   1.398   1_565  A
C260        H265   1.084       .  S
C261        C262   1.405       .  A
C261        C323   1.463       .  S
C262        C263   1.405       .  A
C262        H266   1.084       .  S
C263        C264   1.409       .  A
C263        C502   1.496       .  S
C264        H267   1.083       .  S
C268        C269   1.412       .  A
C268        C273   1.412       .  A
C268        C492   1.485       .  S
C269        C270   1.405       .  A
C269        H274   1.084       .  S
C270        C271   1.400       .  A
C270        C331   1.476       .  S
C271        C272   1.391       .  A
C271        H275   1.085       .  S
C272        C273   1.402       .  A
C272        C665   1.482       .  S
C273        H276   1.083       .  S
C277        C278   1.405       .  A
C277        C282   1.402       .  A
C277        C615   1.492   1_556  S
C278        C279   1.410       .  A
C278        H283   1.084   1_556  S
C279        C280   1.411       .  A
C279        C319   1.482       .  S
C280        C281   1.408       .  A
C280        H284   1.084       .  S
C281        C282   1.406       .  A
C281        C575   1.495       .  S
C282        H285   1.083       .  S
C286        C287   1.407       .  A
C286        C291   1.407       .  A
C286        C532   1.490   1_565  S
C287        C288   1.405       .  A
C287        H292   1.084   1_565  S
C288        C289   1.402   1_455  A
C288        C318   1.467       .  S
C289        C290   1.403   1_655  A
C289        H293   1.084       .  S
C290        C291   1.407       .  A
C290        C482   1.489   1_455  S
C291        H294   1.083       .  S
Zr295       O296   2.440       .  S
Zr295       O297   2.463       .  S
Zr295       O298   2.467       .  S
Zr295       O301   2.453   1_545  S
Zr295       O303   2.381   1_556  S
Zr295       O304   2.388   1_655  S
Zr295       O305   2.416   1_546  S
Zr295       O306   2.409   1_545  S
O296        H352   0.990       .  S
O296        H360   0.991       .  S
O297        C317   1.287       .  A
O298        C319   1.289       .  A
O299       Zr309   2.415       .  S
O299        C318   1.281       .  A
O300       Zr308   2.421       .  S
O300        C319   1.283   1_554  A
O301        C318   1.288   1_655  A
O302       Zr310   2.386       .  S
O302        C317   1.276   1_454  A
O303       Zr308   2.392       .  S
O303       Zr310   2.384   1_655  S
O304       Zr309   2.395   1_545  S
O304       Zr310   2.374   1_556  S
O304        H339   0.966       .  S
O305       Zr308   2.399   1_565  S
O305       Zr325   2.382       .  S
O305        H342   0.964   1_554  S
O306       Zr309   2.390   1_655  S
O306       Zr325   2.386   1_556  S
Zr307       O332   2.442   1_655  S
Zr307       O326   2.443       .  S
Zr307       O334   2.460   1_655  S
Zr307       O322   2.468       .  S
Zr307       O313   2.398   1_655  S
Zr307       O314   2.412   1_565  S
Zr307       O315   2.391       .  S
Zr307       O316   2.393       .  S
Zr308       O327   2.437   1_545  S
Zr308       O320   2.433       .  S
Zr308       O321   2.408       .  S
Zr308       O314   2.401       .  S
Zr308       O315   2.398   1_545  S
Zr309       O311   2.435       .  S
Zr309       O333   2.438       .  S
Zr309       O335   2.414   1_556  S
Zr309       O313   2.389   1_556  S
Zr309       O316   2.390   1_456  S
Zr310       O336   2.434       .  S
Zr310       O337   2.435       .  S
Zr310       O312   2.437   1_455  S
Zr310       O313   2.379   1_545  S
Zr310       O314   2.376   1_455  S
O311        H348   0.990       .  S
O312        H343   0.991   1_655  S
O312        H357   0.990       .  S
O314        H340   0.966       .  S
O315       Zr325   2.384       .  S
O316       Zr325   2.375       .  S
O316        H341   0.968       .  S
O320        H356   0.990       .  S
O321        C323   1.279       .  A
O322        C323   1.289   1_565  A
O324       Zr325   2.442   1_556  S
O324        H353   0.991       .  S
Zr325       O328   2.438       .  S
Zr325       O329   2.441   1_554  S
Zr325       O330   2.391       .  S
O326        C331   1.282       .  A
O327        H344   0.990   1_565  S
O327        H359   0.990       .  S
O328        H345   0.990       .  S
O329        H349   0.990       .  S
O329        H358   0.990       .  S
O330        C331   1.278       .  A
O332        H351   0.990       .  S
O332        H355   0.990   1_455  S
O333        H347   0.990       .  S
O333        H354   0.990       .  S
O334        C338   1.290       .  A
O335        C338   1.281       .  A
O336        H346   0.990       .  S
O337        H350   0.990       .  S
C361        C362   1.397       .  A
C361        C366   1.403       .  A
C361        C582   1.471       .  S
C362        C363   1.395       .  A
C362        H367   1.085       .  S
C363        C364   1.398       .  A
C363        C685   1.471       .  S
C364        C365   1.402       .  A
C364        H368   1.085       .  S
C365        C366   1.405       .  A
C365        C458   1.458       .  S
C366        H369   1.084       .  S
C370        C371   1.400       .  A
C370        C375   1.400       .  A
C370        C595   1.471       .  S
C371        C372   1.397       .  A
C371        H376   1.084       .  S
C372        C373   1.401       .  A
C372        C702   1.476       .  S
C373        C374   1.402       .  A
C373        H377   1.084       .  S
C374        C375   1.398       .  A
C374        C439   1.454       .  S
C375        H378   1.084       .  S
C379        C380   1.399       .  A
C379        C384   1.404       .  A
C379        C485   1.487       .  S
C380        C381   1.400       .  A
C380        H385   1.085       .  S
C381        C382   1.403       .  A
C381        C552   1.479       .  S
C382        C383   1.410       .  A
C382        H386   1.084       .  S
C383        C384   1.413       .  A
C383        C438   1.480       .  S
C384        H387   1.083       .  S
C388        C389   1.409       .  A
C388        C393   1.398       .  A
C388        C505   1.491   1_455  S
C389        C390   1.420       .  A
C389        H394   1.083   1_455  S
C390        C391   1.412       .  A
C390        C443   1.489       .  S
C391        C392   1.406       .  A
C391        H395   1.084       .  S
C392        C393   1.401       .  A
C392        C525   1.491       .  S
C393        H396   1.085       .  S
C397        C398   1.408       .  A
C397        C402   1.408       .  A
C397        C675   1.485       .  S
C398        C399   1.405       .  A
C398        H403   1.083       .  S
C399        C400   1.409       .  A
C399        C437   1.483       .  S
C400        C401   1.401       .  A
C400        H404   1.084       .  S
C401        C402   1.402       .  A
C401        C512   1.491       .  S
C402        H405   1.083       .  S
C406        C407   1.404       .  A
C406        C411   1.404       .  A
C406        C635   1.481       .  S
C407        C408   1.405       .  A
C407        H412   1.084       .  S
C408        C409   1.411       .  A
C408        C451   1.485       .  S
C409        C410   1.404       .  A
C409        H413   1.083       .  S
C410        C411   1.402       .  A
C410        C495   1.490       .  S
C411        H414   1.083       .  S
Zr415       O416   2.442       .  S
Zr415       O417   2.458       .  S
Zr415       O418   2.444       .  S
Zr415       O421   2.463       .  S
Zr415       O423   2.385       .  S
Zr415       O424   2.386       .  S
Zr415       O425   2.421       .  S
Zr415       O426   2.398       .  S
O416        H472   0.990       .  S
O416        H480   0.990       .  S
O417        C437   1.287       .  A
O418        C439   1.285       .  A
O419       Zr429   2.410   1_655  S
O419        C438   1.281       .  A
O420       Zr428   2.411       .  S
O420        C439   1.279       .  A
O421        C438   1.290       .  A
O422       Zr430   2.392       .  S
O422        C437   1.277       .  A
O423       Zr428   2.393       .  S
O423       Zr430   2.380       .  S
O424       Zr429   2.388   1_655  S
O424       Zr430   2.381       .  S
O424        H459   0.967       .  S
O425       Zr428   2.403       .  S
O425       Zr445   2.389       .  S
O425        H462   0.965       .  S
O426       Zr429   2.381   1_655  S
O426       Zr445   2.387       .  S
Zr427       O452   2.439       .  S
Zr427       O446   2.446       .  S
Zr427       O454   2.453       .  S
Zr427       O442   2.481       .  S
Zr427       O433   2.406       .  S
Zr427       O434   2.407   1_455  S
Zr427       O435   2.379   1_455  S
Zr427       O436   2.390       .  S
Zr428       O447   2.436       .  S
Zr428       O440   2.436       .  S
Zr428       O441   2.421       .  S
Zr428       O434   2.398       .  S
Zr428       O435   2.394       .  S
Zr429       O431   2.437       .  S
Zr429       O453   2.435       .  S
Zr429       O455   2.395       .  S
Zr429       O433   2.389       .  S
Zr429       O436   2.395       .  S
Zr430       O456   2.436   1_655  S
Zr430       O457   2.436   1_655  S
Zr430       O432   2.436       .  S
Zr430       O433   2.381   1_655  S
Zr430       O434   2.381       .  S
O431        H468   0.990       .  S
O432        H463   0.990       .  S
O432        H477   0.990       .  S
O434        H460   0.965   1_655  S
O435       Zr445   2.382       .  S
O436       Zr445   2.373   1_455  S
O436        H461   0.966       .  S
O440        H476   0.990       .  S
O441        C443   1.282   1_655  A
O442        C443   1.293       .  A
O444       Zr445   2.439       .  S
O444        H473   0.990       .  S
Zr445       O448   2.437       .  S
Zr445       O449   2.441       .  S
Zr445       O450   2.407       .  S
O446        C451   1.287       .  A
O447        H464   0.990       .  S
O447        H479   0.990       .  S
O448        H465   0.990       .  S
O449        H469   0.990       .  S
O449        H478   0.990       .  S
O450        C451   1.280   1_655  A
O452        H471   0.990       .  S
O452        H475   0.990       .  S
O453        H467   0.990       .  S
O453        H474   0.990       .  S
O454        C458   1.288       .  A
O455        C458   1.277       .  A
O456        H466   0.990       .  S
O457        H470   0.990       .  S
C481        C482   1.410       .  A
C481        C486   1.405       .  A
C481        H488   1.083       .  S
C482        C483   1.406       .  A
C483        C484   1.392       .  A
C483        F490   1.358       .  S
C484        C485   1.406       .  A
C484        H489   1.082       .  S
C485        C486   1.405       .  A
C486        F487   1.357       .  S
C491        C492   1.405       .  A
C491        C496   1.402   1_655  A
C491        H498   1.083       .  S
C492        C493   1.407       .  A
C493        C494   1.397   1_655  A
C493        F500   1.358       .  S
C494        C495   1.406       .  A
C494        H499   1.083       .  S
C495        C496   1.409       .  A
C496        F497   1.357       .  S
C501        C502   1.413       .  A
C501        C506   1.409       .  A
C501        H508   1.083       .  S
C502        C503   1.407       .  A
C503        C504   1.396       .  A
C503        F510   1.358       .  S
C504        C505   1.407       .  A
C504        H509   1.083       .  S
C505        C506   1.405       .  A
C506        F507   1.357       .  S
C511        C512   1.408       .  A
C511        C516   1.396       .  A
C511        H518   1.083       .  S
C512        C513   1.408       .  A
C513        C514   1.401       .  A
C513        F520   1.357       .  S
C514        C515   1.407       .  A
C514        H519   1.083       .  S
C515        C516   1.407       .  A
C516        F517   1.358   1_655  S
C521        C522   1.409       .  A
C521        C526   1.410       .  A
C521        H528   1.083       .  S
C522        C523   1.403       .  A
C523        C524   1.386       .  A
C523        F530   1.358       .  S
C524        C525   1.407       .  A
C524        H529   1.082       .  S
C525        C526   1.409       .  A
C526        F527   1.357       .  S
C531        C532   1.407       .  A
C531        C536   1.405       .  A
C531        H538   1.083       .  S
C532        C533   1.408       .  A
C533        C534   1.398       .  A
C533        F540   1.358       .  S
C534        C535   1.405       .  A
C534        H539   1.083       .  S
C535        C536   1.408       .  A
C536        F537   1.357       .  S
C541        C542   1.403       .  A
C541        C546   1.397   1_545  A
C541        H548   1.083       .  S
C542        C543   1.409   1_545  A
C543        C544   1.402       .  A
C543        F550   1.358       .  S
C544        C545   1.406       .  A
C544        H549   1.083       .  S
C545        C546   1.410       .  A
C546        F547   1.357   1_565  S
C551        C552   1.405       .  A
C551        C556   1.409       .  A
C551        H558   1.083       .  S
C552        C553   1.404       .  A
C553        C554   1.383       .  A
C553        F560   1.358       .  S
C554        C555   1.404       .  A
C554        H559   1.083       .  S
C555        C556   1.411       .  A
C556        F557   1.357       .  S
C561        C562   1.404       .  A
C561        C566   1.394       .  A
C561        H568   1.084       .  S
C562        C563   1.405       .  A
C563        C564   1.404       .  A
C563        F570   1.357       .  S
C564        C565   1.409       .  A
C564        H569   1.083       .  S
C565        C566   1.405       .  A
C566        F567   1.357       .  S
C571        C572   1.404       .  A
C571        C576   1.390   1_565  A
C571        H578   1.082       .  S
C572        C573   1.410       .  A
C573        C574   1.411   1_565  A
C573        F580   1.357       .  S
C574        C575   1.410       .  A
C574        H579   1.083       .  S
C575        C576   1.409       .  A
C576        F577   1.357       .  S
C581        C582   1.403       .  A
C581        C586   1.390       .  A
C581        H588   1.084       .  S
C582        C583   1.404       .  A
C583        C584   1.401       .  A
C583        F590   1.357       .  S
C584        C585   1.406       .  A
C584        H589   1.083       .  S
C585        C586   1.404       .  A
C586        F587   1.358       .  S
C591        C592   1.405       .  A
C591        C596   1.393       .  A
C591        H598   1.083       .  S
C592        C593   1.410       .  A
C593        C594   1.391       .  A
C593        F600   1.358       .  S
C594        C595   1.402       .  A
C594        H599   1.084       .  S
C595        C596   1.404       .  A
C596        F597   1.357       .  S
C601        C602   1.410       .  A
C601        C606   1.408       .  A
C601        H608   1.083       .  S
C602        C603   1.408       .  A
C603        C604   1.392       .  A
C603        F610   1.358       .  S
C604        C605   1.405       .  A
C604        H609   1.084       .  S
C605        C606   1.407       .  A
C606        F607   1.357       .  S
C611        C612   1.402       .  A
C611        C616   1.396       .  A
C611        H618   1.084       .  S
C612        C613   1.408       .  A
C613        C614   1.403       .  A
C613        F620   1.357       .  S
C614        C615   1.406       .  A
C614        H619   1.083       .  S
C615        C616   1.412       .  A
C616        F617   1.356       .  S
C621        C622   1.407       .  A
C621        C626   1.398       .  A
C621        H628   1.083       .  S
C622        C623   1.407       .  A
C623        C624   1.401   1_554  A
C623        F630   1.357       .  S
C624        C625   1.409       .  A
C624        H629   1.083       .  S
C625        C626   1.406   1_556  A
C626        F627   1.357       .  S
C631        C632   1.406       .  A
C631        C636   1.396       .  A
C631        H638   1.083       .  S
C632        C633   1.405       .  A
C633        C634   1.397       .  A
C633        F640   1.357       .  S
C634        C635   1.406       .  A
C634        H639   1.083       .  S
C635        C636   1.406       .  A
C636        F637   1.358       .  S
C641        C642   1.404       .  A
C641        C646   1.390       .  A
C641        H648   1.083       .  S
C642        C643   1.413       .  A
C643        C644   1.410       .  A
C643        F650   1.357       .  S
C644        C645   1.406       .  A
C644        H649   1.083       .  S
C645        C646   1.407       .  A
C646        F647   1.358       .  S
C651        C652   1.406   1_554  A
C651        C656   1.404       .  A
C651        H658   1.083   1_554  S
C652        C653   1.408   1_556  A
C653        C654   1.399       .  A
C653        F660   1.357       .  S
C654        C655   1.405       .  A
C654        H659   1.083       .  S
C655        C656   1.410       .  A
C656        F657   1.357       .  S
C661        C662   1.409       .  A
C661        C666   1.402       .  A
C661        H668   1.083       .  S
C662        C663   1.403   1_554  A
C663        C664   1.392   1_556  A
C663        F670   1.358       .  S
C664        C665   1.407       .  A
C664        H669   1.084       .  S
C665        C666   1.403       .  A
C666        F667   1.357       .  S
C671        C672   1.405       .  A
C671        C676   1.403       .  A
C671        H678   1.083       .  S
C672        C673   1.407       .  A
C673        C674   1.390       .  A
C673        F680   1.358       .  S
C674        C675   1.404       .  A
C674        H679   1.083       .  S
C675        C676   1.409       .  A
C676        F677   1.357       .  S
C681        C682   1.402       .  A
C681        C686   1.386       .  A
C681        H688   1.084       .  S
C682        C683   1.405       .  A
C683        C684   1.401       .  A
C683        F690   1.357       .  S
C684        C685   1.405       .  A
C684        H689   1.083       .  S
C685        C686   1.405       .  A
C686        F687   1.359       .  S
C691        C692   1.404       .  A
C691        C696   1.393       .  A
C691        H698   1.083       .  S
C692        C693   1.407       .  A
C693        C694   1.395       .  A
C693        F700   1.358       .  S
C694        C695   1.404       .  A
C694        H699   1.083       .  S
C695        C696   1.407       .  A
C696        F697   1.358       .  S
C701        C702   1.405       .  A
C701        C706   1.399       .  A
C701        H708   1.083       .  S
C702        C703   1.407       .  A
C703        C704   1.390       .  A
C703        F710   1.358       .  S
C704        C705   1.401       .  A
C704        H709   1.084       .  S
C705        C706   1.404       .  A
C706        F707   1.357       .  S
C711        C712   1.405       .  A
C711        C716   1.393       .  A
C711        H718   1.083       .  S
C712        C713   1.409       .  A
C713        C714   1.391       .  A
C713        F720   1.357       .  S
C714        C715   1.402       .  A
C714        H719   1.084       .  S
C715        C716   1.405       .  A
C716        F717   1.358       .  S
