geometry optimzed in LAMMPS
_audit_creation_date              2020-12-01 
_audit_creation_method            'lammps2cif' 
_symmetry_space_group_name_H-M    'P1' 
_symmetry_Int_Tables_number       1 
_symmetry_cell_setting            triclinic 
loop_ 
_symmetry_equiv_pos_as_xyz 
  x,y,z 
_cell_length_a                    92.71408711 
_cell_length_b                    92.69196652743983 
_cell_length_c                    69.28992161602719 
_cell_angle_alpha                 90.4726006295584 
_cell_angle_beta                  89.95797167110315 
_cell_angle_gamma                 89.30952500763883 
loop_ 
_atom_site_label 
_atom_site_type_symbol 
_atom_site_fract_x 
_atom_site_fract_y 
_atom_site_fract_z 
_atom_site_charge 
C1          C  0.56843635  0.22073371  0.91892168     0.80000
N2          N  0.56882210  0.21914142  0.93850132    -0.78300
C3          C  0.55645966  0.21691022  0.94858669     0.82400
N4          N  0.54374868  0.21645414  0.93894444    -0.78300
C5          C  0.54311396  0.21829279  0.91959825     0.82500
N6          N  0.55548673  0.22049188  0.90954855    -0.80000
N7          N  0.68097983  0.21365195  0.78011121    -0.27500
N8          N  0.68735184  0.22515033  0.77317052    -0.35400
C9          C  0.69681023  0.22119233  0.75951391     0.00800
C10         C  0.69653287  0.20640321  0.75744470     0.06800
C11         C  0.68630557  0.20184928  0.77074017    -0.06300
H12         H  0.70408792  0.22852932  0.75248517     0.07500
H13         H  0.68364609  0.19083063  0.77416718     0.08700
Cu14       Cu  0.68547365  0.24550318  0.78467181     0.44200
Cu15       Cu  0.66670266  0.21627522  0.80336767     0.42000
Cu16       Cu  0.67152883  0.25209060  0.83056337     0.43900
N17         N  0.69152707  0.26296782  0.80093032    -0.34900
N18         N  0.68690536  0.26570927  0.81859723    -0.29200
C19         C  0.69423300  0.27714492  0.82569480    -0.05300
C20         C  0.70397006  0.28152866  0.81165098     0.07000
C21         C  0.70183684  0.27226570  0.79625852     0.00800
H22         H  0.69304382  0.28148444  0.84015622     0.08400
H23         H  0.70780271  0.27184934  0.78284133     0.07500
N24         N  0.65540431  0.23685779  0.83524374    -0.36400
N25         N  0.65349576  0.22459550  0.82557189    -0.28500
C26         C  0.64138478  0.21835717  0.83207000    -0.03800
C27         C  0.63547504  0.22692934  0.84659551     0.04800
C28         C  0.64467526  0.23851674  0.84820813     0.02900
H29         H  0.63718589  0.20828689  0.82659077     0.08000
H30         H  0.64343779  0.24774936  0.85774734     0.06900
C31         C  0.56919332  0.22400265  0.09568097     0.80000
N32         N  0.57191620  0.22230588  0.07644281    -0.78300
C33         C  0.56089502  0.22055567  0.06372061     0.82400
N34         N  0.54712198  0.22062647  0.07040596    -0.78300
C35         C  0.54420432  0.22262749  0.08943261     0.82500
N36         N  0.55527159  0.22434827  0.10205609    -0.80000
N37         N  0.68051175  0.22148651  0.23060210    -0.27500
N38         N  0.68754684  0.23247385  0.23816077    -0.35400
C39         C  0.69645918  0.22771399  0.25192738     0.00800
C40         C  0.69515067  0.21296150  0.25341815     0.06800
C41         C  0.68490934  0.20927416  0.23960099    -0.06300
H42         H  0.70421123  0.23441832  0.25932179     0.07500
H43         H  0.68170119  0.19849862  0.23547473     0.08700
Cu44       Cu  0.68767526  0.25315033  0.22753524     0.44200
Cu45       Cu  0.66693779  0.22461739  0.20675451     0.42000
Cu46       Cu  0.67416685  0.25996548  0.18166800     0.43900
N47         N  0.69372795  0.27098652  0.21207112    -0.34900
N48         N  0.68901986  0.27368095  0.19449951    -0.29200
C49         C  0.69597344  0.28529833  0.18763071    -0.05300
C50         C  0.70556542  0.28999222  0.20167800     0.07000
C51         C  0.70377186  0.28063806  0.21692678     0.00800
H52         H  0.69458210  0.28961603  0.17328719     0.08400
H53         H  0.70978930  0.28041669  0.23028923     0.07500
N54         N  0.65913789  0.24461266  0.17328901    -0.36400
N55         N  0.65613616  0.23240325  0.18223611    -0.28500
C56         C  0.64515552  0.22596814  0.17287578    -0.03800
C57         C  0.64128087  0.23439454  0.15722850     0.04800
C58         C  0.65038436  0.24605496  0.15796786     0.02900
H59         H  0.64041089  0.21585691  0.17707052     0.08000
H60         H  0.65038226  0.25519101  0.14834995     0.06900
C61         C  0.73213759  0.07349912  0.58797239     0.80000
N62         N  0.72929128  0.07498216  0.56872401    -0.78300
C63         C  0.72535529  0.06338015  0.55790289     0.82400
N64         N  0.72442823  0.05033003  0.56645528    -0.78300
C65         C  0.72746869  0.04855060  0.58539644     0.82500
N66         N  0.73138326  0.06017515  0.59620844    -0.80000
N67         N  0.71975947  0.18316256  0.72738880    -0.27500
N68         N  0.72857841  0.19352199  0.73265131    -0.35400
C69         C  0.72169976  0.20277250  0.74446259     0.00800
C70         C  0.70779031  0.19804333  0.74711072     0.06800
C71         C  0.70684328  0.18548408  0.73608460    -0.06300
H72         H  0.72643838  0.21245487  0.75039218     0.07500
H73         H  0.69738709  0.17895062  0.73388754     0.08700
Cu74       Cu  0.74925978  0.19530505  0.72259899     0.44200
Cu75       Cu  0.72699940  0.16782485  0.70731084     0.42000
Cu76       Cu  0.76243346  0.17652218  0.68154544     0.43900
N77         N  0.76877896  0.19965647  0.71023985    -0.34900
N78         N  0.77395624  0.19336782  0.69450101    -0.29200
C79         C  0.78662262  0.19967274  0.69000253    -0.05300
C80         C  0.78936898  0.21028891  0.70382767     0.07000
C81         C  0.77780597  0.20985551  0.71631604     0.00800
H82         H  0.79327481  0.19679177  0.67769751     0.08400
H83         H  0.77580079  0.21674072  0.72872841     0.07500
N84         N  0.74904917  0.15880271  0.67605207    -0.36400
N85         N  0.73709660  0.15558994  0.68560196    -0.28500
C86         C  0.73203726  0.14298449  0.67883733    -0.03800
C87         C  0.74100517  0.13805474  0.66421288     0.04800
C88         C  0.75162854  0.14837271  0.66276302     0.02900
H89         H  0.72237238  0.13787034  0.68404721     0.08000
H90         H  0.76079309  0.14812703  0.65308599     0.06900
C91         C  0.72808319  0.07474202  0.41032619     0.80000
N92         N  0.72575180  0.06076901  0.40472923    -0.78300
C93         C  0.72315439  0.05050136  0.41817451     0.82400
N94         N  0.72281599  0.05429917  0.43707351    -0.78300
C95         C  0.72525331  0.06801832  0.44301868     0.82500
N96         N  0.72797464  0.07826432  0.42955267    -0.80000
N97         N  0.71782655  0.18934092  0.28315878    -0.27500
N98         N  0.72721418  0.19843113  0.27590309    -0.35400
C99         C  0.72054893  0.20729744  0.26359651     0.00800
C100        C  0.70617157  0.20377494  0.26274503     0.06800
C101        C  0.70470708  0.19228038  0.27538460    -0.06300
H102        H  0.72573786  0.21614764  0.25636742     0.07500
H103        H  0.69481928  0.18694497  0.27927185     0.08700
Cu104      Cu  0.74839715  0.20024712  0.28408640     0.44200
Cu105      Cu  0.72450361  0.17452536  0.30419274     0.42000
Cu106      Cu  0.76251150  0.18177047  0.32300908     0.43900
N107        N  0.76801487  0.20559009  0.29569932    -0.34900
N108        N  0.77364019  0.19911867  0.31085462    -0.29200
C109        C  0.78621722  0.20566001  0.31533955    -0.05300
C110        C  0.78846971  0.21667162  0.30212194     0.07000
C111        C  0.77665441  0.21621749  0.28999946     0.00800
H112        H  0.79317562  0.20264007  0.32719872     0.08400
H113        H  0.77430450  0.22328671  0.27803559     0.07500
N114        N  0.74913141  0.16453720  0.33073656    -0.36400
N115        N  0.73598230  0.16182996  0.32413543    -0.28500
C116        C  0.73111188  0.14976081  0.33264707    -0.03800
C117        C  0.74155752  0.14468343  0.34529286     0.04800
C118        C  0.75277323  0.15434456  0.34363771     0.02900
H119        H  0.72056596  0.14522826  0.33018162     0.08000
H120        H  0.76290463  0.15403298  0.35136238     0.06900
C121        C  0.76763720  0.44181383  0.90729056     0.80000
N122        N  0.76789484  0.43886346  0.92652744    -0.78300
C123        C  0.76673186  0.44958546  0.93991988     0.82400
N124        N  0.76509001  0.46339550  0.93386632    -0.78300
C125        C  0.76503376  0.46664838  0.91476769     0.82500
N126        N  0.76640164  0.45581997  0.90138985    -0.80000
N127        N  0.78439646  0.32169452  0.78565889    -0.27500
N128        N  0.77606774  0.31058380  0.78180673    -0.35400
C129        C  0.78310636  0.30119425  0.77035831     0.00800
C130        C  0.79666927  0.30642996  0.76643527     0.06800
C131        C  0.79717754  0.31958639  0.77636322    -0.06300
H132        H  0.77869251  0.29102923  0.76554939     0.07500
H133        H  0.80628917  0.32673053  0.77737804     0.08700
Cu134      Cu  0.75573820  0.30752848  0.79287027     0.44200
Cu135      Cu  0.77678852  0.33792076  0.80481062     0.42000
Cu136      Cu  0.74129797  0.32822026  0.83013116     0.43900
N137        N  0.73631916  0.30263827  0.80544431    -0.34900
N138        N  0.73060688  0.30995582  0.82000657    -0.29200
C139        C  0.71806472  0.30365130  0.82507923    -0.05300
C140        C  0.71591317  0.29191462  0.81279705     0.07000
C141        C  0.72772847  0.29169778  0.80064439     0.00800
H142        H  0.71098344  0.30743601  0.83650725     0.08400
H143        H  0.73005184  0.28403415  0.78917083     0.07500
N144        N  0.75366000  0.34668378  0.83480722    -0.36400
N145        N  0.76576317  0.35040803  0.82597564    -0.28500
C146        C  0.77000874  0.36326335  0.83325140    -0.03800
C147        C  0.76025867  0.36776006  0.84737897     0.04800
C148        C  0.75009020  0.35693996  0.84782397     0.02900
H149        H  0.77969466  0.36876044  0.82889820     0.08000
H150        H  0.74064822  0.35650263  0.85696441     0.06900
C151        C  0.77747298  0.43927835  0.08519404     0.80000
N152        N  0.78171690  0.45230133  0.09256076    -0.78300
C153        C  0.78163558  0.46421663  0.08125534     0.82400
N154        N  0.77743759  0.46308350  0.06265535    -0.78300
C155        C  0.77321771  0.45034930  0.05494983     0.82500
N156        N  0.77324575  0.43833907  0.06625519    -0.80000
N157        N  0.78738987  0.32728951  0.21809012    -0.27500
N158        N  0.77751092  0.31972408  0.22714383    -0.35400
C159        C  0.78381001  0.31151610  0.24064078     0.00800
C160        C  0.79845151  0.31397957  0.24052805     0.06800
C161        C  0.80042635  0.32402833  0.22591600    -0.06300
H162        H  0.77819160  0.30369248  0.24927948     0.07500
H163        H  0.81061131  0.32803109  0.22070065     0.08700
Cu164      Cu  0.75611849  0.31879327  0.21934306     0.44200
Cu165      Cu  0.78154361  0.34035478  0.19435407     0.42000
Cu166      Cu  0.74458505  0.33230664  0.17451665     0.43900
N167        N  0.73694726  0.31277834  0.20687040    -0.34900
N168        N  0.73254629  0.31717248  0.18976419    -0.29200
C169        C  0.72029393  0.31013530  0.18519598    -0.05300
C170        C  0.71694842  0.30096977  0.20031874     0.07000
C171        C  0.72776299  0.30301447  0.21372629     0.00800
H172        H  0.71444491  0.31137659  0.17179800     0.08400
H173        H  0.72923715  0.29738042  0.22720164     0.07500
N174        N  0.75834247  0.34844932  0.16452907    -0.36400
N175        N  0.77128745  0.35152764  0.17147006    -0.28500
C176        C  0.77646927  0.36293185  0.16169186    -0.03800
C177        C  0.76640127  0.36724820  0.14789604     0.04800
C178        C  0.75509305  0.35772456  0.15026930     0.02900
H179        H  0.78683668  0.36774045  0.16448002     0.08000
H180        H  0.74501033  0.35764976  0.14244799     0.06900
N181        N  0.82407804  0.28994592  0.73419131    -0.27500
N182        N  0.81727400  0.27872081  0.74123947    -0.35400
C183        C  0.80757073  0.28308988  0.75435864     0.00800
C184        C  0.80797305  0.29790403  0.75605988     0.06800
C185        C  0.81868637  0.30201752  0.74304454    -0.06300
H186        H  0.80010401  0.27594148  0.76137679     0.07500
H187        H  0.82169890  0.31292318  0.73952277     0.08700
Cu188      Cu  0.81883059  0.25794120  0.73100185     0.44200
Cu189      Cu  0.83913807  0.28638536  0.71148900     0.42000
Cu190      Cu  0.83408735  0.24964634  0.68677776     0.43900
N191        N  0.81313130  0.23980927  0.71575547    -0.34900
N192        N  0.81837629  0.23647991  0.69858863    -0.29200
C193        C  0.81134306  0.22482391  0.69166667    -0.05300
C194        C  0.80114587  0.22083686  0.70529452     0.07000
C195        C  0.80269186  0.23060389  0.72031247     0.00800
H196        H  0.81308277  0.22003131  0.67755726     0.08400
H197        H  0.79624189  0.23144191  0.73329364     0.07500
N198        N  0.85003385  0.26461037  0.68047297    -0.36400
N199        N  0.85212082  0.27729012  0.68902744    -0.28500
C200        C  0.86396271  0.28324376  0.68113559    -0.03800
C201        C  0.86953095  0.27398569  0.66695424     0.04800
C202        C  0.86032933  0.26234000  0.66704508     0.02900
H203        H  0.86821035  0.29359733  0.68544010     0.08000
H204        H  0.86118676  0.25266770  0.65826582     0.06900
C205        C  0.93389437  0.27664888  0.58944403     0.80000
N206        N  0.94756055  0.27813741  0.59652650    -0.78300
C207        C  0.95865114  0.28120928  0.58436077     0.82400
N208        N  0.95592852  0.28281150  0.56526220    -0.78300
C209        C  0.94246629  0.28125119  0.55792376     0.82500
N210        N  0.93146875  0.27806495  0.57011940    -0.80000
N211        N  0.82389805  0.29567913  0.27280216    -0.27500
N212        N  0.81715984  0.28475727  0.26459909    -0.35400
C213        C  0.80813777  0.28972286  0.25100837     0.00800
C214        C  0.80917967  0.30455250  0.25020721     0.06800
C215        C  0.81924353  0.30804193  0.26438421    -0.06300
H216        H  0.80065125  0.28306453  0.24306093     0.07500
H217        H  0.82231741  0.31876326  0.26893862     0.08700
Cu218      Cu  0.81819918  0.26378290  0.27426375     0.44200
Cu219      Cu  0.83790543  0.29199891  0.29627763     0.42000
Cu220      Cu  0.83420228  0.25536344  0.31915350     0.43900
N221        N  0.81259104  0.24588938  0.28997334    -0.34900
N222        N  0.81799984  0.24258988  0.30701686    -0.29200
C223        C  0.81077248  0.23113541  0.31400779    -0.05300
C224        C  0.80029863  0.22722827  0.30061598     0.07000
C225        C  0.80188603  0.23684675  0.28564448     0.00800
H226        H  0.81259508  0.22640619  0.32802923     0.08400
H227        H  0.79530502  0.23766763  0.27281037     0.07500
N228        N  0.84967088  0.27080583  0.32652234    -0.36400
N229        N  0.85108731  0.28366437  0.31850276    -0.28500
C230        C  0.86251973  0.29026430  0.32660286    -0.03800
C231        C  0.86857462  0.28124206  0.34042365     0.04800
C232        C  0.86007904  0.26903428  0.33989033     0.02900
H233        H  0.86619788  0.30085903  0.32261051     0.08000
H234        H  0.86153746  0.25935403  0.34831478     0.06900
C235        C  0.93618650  0.28241113  0.41273370     0.80000
N236        N  0.93561324  0.28389684  0.43237600    -0.78300
C237        C  0.94792530  0.28594919  0.44270496     0.82400
N238        N  0.96070821  0.28625944  0.43321909    -0.78300
C239        C  0.96154633  0.28448546  0.41385685     0.82500
N240        N  0.94923386  0.28252799  0.40352617    -0.80000
N241        N  0.79404225  0.68770506  0.76661673    -0.27500
N242        N  0.78303107  0.69490327  0.75918326    -0.35400
C243        C  0.78777970  0.70414601  0.74595982     0.00800
C244        C  0.80258743  0.70288876  0.74469020     0.06800
C245        C  0.80629728  0.69229334  0.75802692    -0.06300
H246        H  0.78097131  0.71194025  0.73866975     0.07500
H247        H  0.81707774  0.68887424  0.76201716     0.08700
Cu248      Cu  0.76221173  0.69430058  0.76932491     0.44200
Cu249      Cu  0.79038179  0.67335024  0.78946900     0.42000
Cu250      Cu  0.75431544  0.68001582  0.81455126     0.43900
N251        N  0.74378499  0.69994004  0.78425725    -0.34900
N252        N  0.74064511  0.69525121  0.80166448    -0.29200
C253        C  0.72844640  0.70204665  0.80782145    -0.05300
C254        C  0.72386662  0.71143405  0.79341899     0.07000
C255        C  0.73389347  0.70970135  0.77879081     0.00800
H256        H  0.72348422  0.70050630  0.82177570     0.08400
H257        H  0.73432245  0.71548720  0.76531838     0.07500
N258        N  0.76891175  0.66313270  0.82023109    -0.36400
N259        N  0.78137028  0.66052181  0.81133627    -0.28500
C260        C  0.78705501  0.64812391  0.81827941    -0.03800
C261        C  0.77786567  0.64269867  0.83225732     0.04800
C262        C  0.76652472  0.65257207  0.83302736     0.02900
H263        H  0.79714358  0.64337169  0.81340552     0.08000
H264        H  0.75693336  0.65193532  0.84185847     0.06900
C265        C  0.77660381  0.57536467  0.90466899     0.80000
N266        N  0.77740770  0.57702139  0.92420873    -0.78300
C267        C  0.77784685  0.56538846  0.93598309     0.82400
N268        N  0.77706920  0.55202132  0.92805255    -0.78300
C269        C  0.77616376  0.55005030  0.90868591     0.82500
N270        N  0.77601866  0.56176840  0.89683928    -0.80000
N271        N  0.79015908  0.68762172  0.21305926    -0.27500
N272        N  0.77952788  0.69541277  0.22053833    -0.35400
C273        C  0.78471052  0.70428111  0.23410839     0.00800
C274        C  0.79939704  0.70198518  0.23559236     0.06800
C275        C  0.80258766  0.69132553  0.22194648    -0.06300
H276        H  0.77835696  0.71247842  0.24153330     0.07500
H277        H  0.81317686  0.68728391  0.21794340     0.08700
Cu278      Cu  0.75891746  0.69560999  0.20985280     0.44200
Cu279      Cu  0.78580991  0.67392970  0.18976961     0.42000
Cu280      Cu  0.75078816  0.68186705  0.16316982     0.43900
N281        N  0.74099157  0.70186120  0.19464219    -0.34900
N282        N  0.73786836  0.69753620  0.17694724    -0.29200
C283        C  0.72610388  0.70499643  0.17090017    -0.05300
C284        C  0.72179757  0.71436307  0.18567286     0.07000
C285        C  0.73150194  0.71199215  0.20039586     0.00800
H286        H  0.72127497  0.70393218  0.15676023     0.08400
H287        H  0.73207283  0.71765265  0.21407964     0.07500
N288        N  0.76489041  0.66441014  0.15778166    -0.36400
N289        N  0.77687880  0.66151663  0.16754497    -0.28500
C290        C  0.78233222  0.64877818  0.16138371    -0.03800
C291        C  0.77355362  0.64337768  0.14696153     0.04800
C292        C  0.76264185  0.65361814  0.14498861     0.02900
H293        H  0.79193821  0.64371621  0.16721071     0.08000
H294        H  0.75336419  0.65294981  0.13557543     0.06900
C295        C  0.77724814  0.57213110  0.08057246     0.80000
N296        N  0.77867808  0.55954873  0.09063325    -0.78300
C297        C  0.78115746  0.54687999  0.08099003     0.82400
N298        N  0.78201785  0.54686868  0.06148054    -0.78300
C299        C  0.78039824  0.55916012  0.05125352     0.82500
N300        N  0.77801523  0.57178415  0.06090119    -0.80000
N301        N  0.82731840  0.72499996  0.71631374    -0.27500
N302        N  0.81737842  0.73445148  0.72184765    -0.35400
C303        C  0.80772895  0.72801744  0.73314018     0.00800
C304        C  0.81171327  0.71372545  0.73521852     0.06800
C305        C  0.82428207  0.71209060  0.72433981    -0.06300
H306        H  0.79821148  0.73331953  0.73900201     0.07500
H307        H  0.83031716  0.70220316  0.72174938     0.08700
Cu308      Cu  0.81629964  0.75536652  0.71244691     0.44200
Cu309      Cu  0.84310682  0.73161354  0.69674635     0.42000
Cu310      Cu  0.83524696  0.76814486  0.67243191     0.43900
N311        N  0.81063239  0.77413883  0.69881544    -0.34900
N312        N  0.81698445  0.77917527  0.68326564    -0.29200
C313        C  0.80943425  0.79094374  0.67727157    -0.05300
C314        C  0.79786611  0.79321067  0.68987940     0.07000
C315        C  0.79913874  0.78233474  0.70326538     0.00800
H316        H  0.81195524  0.79714746  0.66457776     0.08400
H317        H  0.79188903  0.78008721  0.71506380     0.07500
N318        N  0.85315834  0.75437949  0.66754415    -0.36400
N319        N  0.85596142  0.74191825  0.67619327    -0.28500
C320        C  0.86854416  0.73652580  0.66937009    -0.03800
C321        C  0.87396549  0.74586133  0.65571336     0.04800
C322        C  0.86388207  0.75703499  0.65496857     0.02900
H323        H  0.87326054  0.72636195  0.67384131     0.08000
H324        H  0.86431917  0.76652164  0.64601574     0.06900
C325        C  0.93726912  0.74080356  0.57694040     0.80000
N326        N  0.93480369  0.74240373  0.55767032    -0.78300
C327        C  0.94543547  0.73982729  0.54461910     0.82400
N328        N  0.95856343  0.73548041  0.55091894    -0.78300
C329        C  0.96131709  0.73377435  0.56994672     0.82500
N330        N  0.95065915  0.73649404  0.58314234    -0.80000
N331        N  0.82418513  0.72240853  0.26608201    -0.27500
N332        N  0.81599497  0.73262480  0.25853697    -0.35400
C333        C  0.80673942  0.72683127  0.24599359     0.00800
C334        C  0.80917978  0.71215488  0.24521464     0.06800
C335        C  0.82036288  0.70959404  0.25818769    -0.06300
H336        H  0.79839232  0.73284634  0.23854293     0.07500
H337        H  0.82481983  0.69922283  0.26227544     0.08700
Cu338      Cu  0.81619255  0.75376516  0.26709116     0.44200
Cu339      Cu  0.83876446  0.72805825  0.28782234     0.42000
Cu340      Cu  0.83303498  0.76611673  0.30911443     0.43900
N341        N  0.81099235  0.77319633  0.27953187    -0.34900
N342        N  0.81666396  0.77812591  0.29570247    -0.29200
C343        C  0.80984505  0.79065151  0.30048771    -0.05300
C344        C  0.79948668  0.79353230  0.28644097     0.07000
C345        C  0.80061254  0.78220776  0.27349376     0.00800
H346        H  0.81208024  0.79702243  0.31326504     0.08400
H347        H  0.79402023  0.78030603  0.26087738     0.07500
N348        N  0.84934593  0.75127277  0.31649329    -0.36400
N349        N  0.85145609  0.73823363  0.30882176    -0.28500
C350        C  0.86346226  0.73237010  0.31654236    -0.03800
C351        C  0.86914036  0.74199939  0.32978692     0.04800
C352        C  0.85989295  0.75383045  0.32940716     0.02900
H353        H  0.86776613  0.72182904  0.31272166     0.08000
H354        H  0.86098542  0.76378402  0.33750768     0.06900
C355        C  0.93717316  0.74125864  0.40087690     0.80000
N356        N  0.93752841  0.74424753  0.42018725    -0.78300
C357        C  0.95007675  0.74308073  0.43020635     0.82400
N358        N  0.96222055  0.73877745  0.42082256    -0.78300
C359        C  0.96206845  0.73570738  0.40171253     0.82500
N360        N  0.94952932  0.73688272  0.39168339    -0.80000
N361        N  0.71331578  0.82566595  0.71193274    -0.27500
N362        N  0.72394274  0.81751913  0.71858884    -0.35400
C363        C  0.71874744  0.80780083  0.73079841     0.00800
C364        C  0.70402793  0.80968731  0.73224179     0.06800
C365        C  0.70081869  0.82121052  0.72007258    -0.06300
H366        H  0.72523624  0.79946751  0.73752258     0.07500
H367        H  0.69022565  0.82550224  0.71668987     0.08700
Cu368      Cu  0.74498089  0.81795419  0.70949572     0.44200
Cu369      Cu  0.71801350  0.84123630  0.69093818     0.42000
Cu370      Cu  0.75587951  0.83604804  0.66887484     0.43900
N371        N  0.76458577  0.81368981  0.69677699    -0.34900
N372        N  0.76906904  0.82003299  0.68095608    -0.29200
C373        C  0.78197371  0.81412964  0.67581859    -0.05300
C374        C  0.78558865  0.80358118  0.68925432     0.07000
C375        C  0.77425187  0.80371525  0.70222791     0.00800
H376        H  0.78811277  0.81711050  0.66321502     0.08400
H377        H  0.77286113  0.79679844  0.71456315     0.07500
N378        N  0.74090461  0.85247006  0.66257020    -0.36400
N379        N  0.72792964  0.85455198  0.67033220    -0.28500
C380        C  0.72214464  0.86675497  0.66296029    -0.03800
C381        C  0.73179930  0.87256471  0.64988020     0.04800
C382        C  0.74351332  0.86317026  0.65007548     0.02900
H383        H  0.71163729  0.87106662  0.66684409     0.08000
H384        H  0.75345066  0.86419658  0.64204646     0.06900
C385        C  0.73370951  0.94073886  0.57922010     0.80000
N386        N  0.73009486  0.95337887  0.58847226    -0.78300
C387        C  0.72886806  0.96579534  0.57826598     0.82400
N388        N  0.73104610  0.96547863  0.55901454    -0.78300
C389        C  0.73457747  0.95314670  0.54949422     0.82500
N390        N  0.73587934  0.94067957  0.55965386    -0.80000
N391        N  0.72023838  0.83238428  0.25788885    -0.27500
N392        N  0.73060994  0.82443621  0.24996846    -0.35400
C393        C  0.72490802  0.81534722  0.23701726     0.00800
C394        C  0.71016945  0.81758939  0.23645376     0.06800
C395        C  0.70750876  0.82849745  0.24994646    -0.06300
H396        H  0.73095849  0.80695424  0.22953119     0.07500
H397        H  0.69707121  0.83256058  0.25458251     0.08700
Cu398      Cu  0.75166216  0.82380987  0.25945548     0.44200
Cu399      Cu  0.72481242  0.84654071  0.28079750     0.42000
Cu400      Cu  0.76000822  0.83868739  0.30540189     0.43900
N401        N  0.76951546  0.81755252  0.27515609    -0.34900
N402        N  0.77267170  0.82254816  0.29252583    -0.29200
C403        C  0.78428816  0.81522459  0.29927594    -0.05300
C404        C  0.78849742  0.80514999  0.28537579     0.07000
C405        C  0.77886627  0.80699981  0.27035256     0.00800
H406        H  0.78902269  0.81682119  0.31338406     0.08400
H407        H  0.77831145  0.80077043  0.25711165     0.07500
N408        N  0.74598408  0.85574415  0.31236962    -0.36400
N409        N  0.73365216  0.85871676  0.30349861    -0.28500
C410        C  0.72802969  0.87096864  0.31113504    -0.03800
C411        C  0.73716725  0.87597277  0.32552540     0.04800
C412        C  0.74839555  0.86595606  0.32588610     0.02900
H413        H  0.71803797  0.87592395  0.30639642     0.08000
H414        H  0.75791274  0.86627715  0.33488985     0.06900
C415        C  0.73519001  0.94147387  0.40190400     0.80000
N416        N  0.73279695  0.95519400  0.39534091    -0.78300
C417        C  0.73018803  0.96616028  0.40822899     0.82400
N418        N  0.73014688  0.96330897  0.42739454    -0.78300
C419        C  0.73266617  0.94982038  0.43408358     0.82500
N420        N  0.73515600  0.93895736  0.42125274    -0.80000
C421        C  0.56776696  0.77373086  0.89860814     0.80000
N422        N  0.56834352  0.77720329  0.91778248    -0.78300
C423        C  0.55604966  0.77972366  0.92801468     0.82400
N424        N  0.54317260  0.77862131  0.91894144    -0.78300
C425        C  0.54227975  0.77492608  0.90004395     0.82500
N426        N  0.55463221  0.77241450  0.88978338    -0.80000
N427        N  0.68030374  0.78886790  0.76348103    -0.27500
N428        N  0.68971551  0.77907691  0.75738134    -0.35400
C429        C  0.69848848  0.78489943  0.74435976     0.00800
C430        C  0.69459622  0.79918634  0.74186687     0.06800
C431        C  0.68291446  0.80142536  0.75425729    -0.06300
H432        H  0.70766711  0.77931320  0.73801233     0.07500
H433        H  0.67736719  0.81154063  0.75719482     0.08700
Cu434      Cu  0.69209859  0.75887817  0.76902104     0.44200
Cu435      Cu  0.66603954  0.78321132  0.78552337     0.42000
Cu436      Cu  0.67620425  0.74863762  0.81285811     0.43900
N437        N  0.69895925  0.74108578  0.78410549    -0.34900
N438        N  0.69369446  0.73706619  0.80089607    -0.29200
C439        C  0.70146242  0.72552289  0.80710917    -0.05300
C440        C  0.71202647  0.72229482  0.79336312     0.07000
C441        C  0.70999499  0.73241899  0.77909379     0.00800
H442        H  0.69967383  0.72002089  0.82059298     0.08400
H443        H  0.71634283  0.73373033  0.76614150     0.07500
N444        N  0.65769182  0.76161751  0.81724032    -0.36400
N445        N  0.65403312  0.77330106  0.80730196    -0.28500
C446        C  0.64097459  0.77799875  0.81331797    -0.03800
C447        C  0.63619215  0.76908393  0.82784062     0.04800
C448        C  0.64709139  0.75886331  0.82999789     0.02900
H449        H  0.63537106  0.78731041  0.80754292     0.08000
H450        H  0.64711034  0.74978888  0.83972059     0.06900
N451        N  0.68477414  0.79646066  0.20781837    -0.27500
N452        N  0.69287022  0.78632874  0.21584159    -0.35400
C453        C  0.70223486  0.79242804  0.22803411     0.00800
C454        C  0.69998030  0.80715918  0.22807827     0.06800
C455        C  0.68879436  0.80942847  0.21504041    -0.06300
H456        H  0.71066493  0.78658517  0.23556143     0.07500
H457        H  0.68459564  0.81972548  0.21022547     0.08700
Cu458      Cu  0.69313573  0.76480770  0.20811430     0.44200
Cu459      Cu  0.67035166  0.79135233  0.18551128     0.42000
Cu460      Cu  0.68047034  0.75593757  0.16215382     0.43900
N461        N  0.69904607  0.74588849  0.19424587    -0.34900
N462        N  0.69487095  0.74258901  0.17658106    -0.29200
C463        C  0.70177725  0.73039767  0.17079266    -0.05300
C464        C  0.71071243  0.72590526  0.18568239     0.07000
C465        C  0.70862675  0.73598631  0.20029086     0.00800
H466        H  0.70070906  0.72546286  0.15667288     0.08400
H467        H  0.71419731  0.73654159  0.21397999     0.07500
N468        N  0.66439189  0.76997671  0.15278962    -0.36400
N469        N  0.66026985  0.78224405  0.16120904    -0.28500
C470        C  0.64889803  0.78767270  0.15138535    -0.03800
C471        C  0.64589835  0.77849289  0.13598763     0.04800
C472        C  0.65596184  0.76744739  0.13741508     0.02900
H473        H  0.64329824  0.79762018  0.15510256     0.08000
H474        H  0.65685925  0.75796470  0.12827122     0.06900
C475        C  0.57311230  0.78447346  0.07449500     0.80000
N476        N  0.57513162  0.78425704  0.05498982    -0.78300
C477        C  0.56360524  0.78481817  0.04283329     0.82400
N478        N  0.55008627  0.78547739  0.05039722    -0.78300
C479        C  0.54790071  0.78539563  0.06974001     0.82500
N480        N  0.55944180  0.78484806  0.08176795    -0.80000
C481        C  0.23506347  0.57675613  0.90898024     0.80000
N482        N  0.23299637  0.56321655  0.90169826    -0.78300
C483        C  0.23189666  0.55179847  0.91378321     0.82400
N484        N  0.23308931  0.55389607  0.93309801    -0.78300
C485        C  0.23525606  0.56726942  0.94057912     0.82500
N486        N  0.23617510  0.57868706  0.92846569    -0.80000
N487        N  0.21719460  0.68018071  0.76029549    -0.27500
N488        N  0.22776055  0.68726780  0.75203578    -0.35400
C489        C  0.22237934  0.69638321  0.73897391     0.00800
C490        C  0.20758539  0.69514356  0.73863845     0.06800
C491        C  0.20455128  0.68471275  0.75241561    -0.06300
H492        H  0.22876565  0.70408282  0.73113298     0.07500
H493        H  0.19399276  0.68137355  0.75715211     0.08700
Cu494      Cu  0.24883412  0.68667035  0.76085446     0.44200
Cu495      Cu  0.22226099  0.66615864  0.78308762     0.42000
Cu496      Cu  0.25935400  0.67312335  0.80549590     0.43900
N497        N  0.26757837  0.69280970  0.77404959    -0.34900
N498        N  0.27175077  0.68832153  0.79119023    -0.29200
C499        C  0.28384657  0.69544569  0.79623059    -0.05300
C500        C  0.28723123  0.70484543  0.78138746     0.07000
C501        C  0.27666026  0.70280093  0.76766435     0.00800
H502        H  0.28947695  0.69418773  0.80979271     0.08400
H503        H  0.27528029  0.70854493  0.75425749     0.07500
N504        N  0.24508317  0.65680972  0.81300395    -0.36400
N505        N  0.23240283  0.65404395  0.80495310    -0.28500
C506        C  0.22698914  0.64212846  0.81317944    -0.03800
C507        C  0.23654057  0.63730410  0.82716631     0.04800
C508        C  0.24783603  0.64689161  0.82662963     0.02900
H509        H  0.21674313  0.63741575  0.80940143     0.08000
H510        H  0.25755311  0.64652136  0.83525684     0.06900
C511        C  0.23941203  0.56926588  0.08561973     0.80000
N512        N  0.24129665  0.57076963  0.06615986    -0.78300
C513        C  0.24302629  0.55891104  0.05461668     0.82400
N514        N  0.24297645  0.54566984  0.06269977    -0.78300
C515        C  0.24096507  0.54395183  0.08186193     0.82500
N516        N  0.23903171  0.55576222  0.09336358    -0.80000
N517        N  0.22256273  0.68468275  0.21464596    -0.27500
N518        N  0.23253625  0.69284134  0.22270641    -0.35400
C519        C  0.22639057  0.70134519  0.23618069     0.00800
C520        C  0.21178718  0.69859403  0.23698481     0.06800
C521        C  0.20966907  0.68793953  0.22299958    -0.06300
H522        H  0.23203438  0.70969792  0.24401406     0.07500
H523        H  0.19944574  0.68357086  0.21842584     0.08700
Cu524      Cu  0.25380550  0.69458028  0.21362569     0.44200
Cu525      Cu  0.22770314  0.67092998  0.19121395     0.42000
Cu526      Cu  0.26358653  0.67997087  0.16897156     0.43900
N527        N  0.27294975  0.70008134  0.20005534    -0.34900
N528        N  0.27662410  0.69501606  0.18286961    -0.29200
C529        C  0.28894420  0.70140565  0.17719166    -0.05300
C530        C  0.29319176  0.71095170  0.19162272     0.07000
C531        C  0.28276798  0.70973167  0.20587125     0.00800
H532        H  0.29422425  0.69948506  0.16346740     0.08400
H533        H  0.28202950  0.71584695  0.21920404     0.07500
N534        N  0.24986966  0.66358981  0.15977572    -0.36400
N535        N  0.23742351  0.65994567  0.16771742    -0.28500
C536        C  0.23242450  0.64817215  0.15835175    -0.03800
C537        C  0.24207237  0.64436138  0.14375615     0.04800
C538        C  0.25292277  0.65442514  0.14516468     0.02900
H539        H  0.22250216  0.64277492  0.16191771     0.08000
H540        H  0.26265537  0.65480025  0.13657568     0.06900
C541        C  0.07055260  0.73695613  0.57212650     0.80000
N542        N  0.05691946  0.73613469  0.57942809    -0.78300
C543        C  0.04550719  0.73418063  0.56732554     0.82400
N544        N  0.04781727  0.73309404  0.54797612    -0.78300
C545        C  0.06131891  0.73414067  0.54048828     0.82500
N546        N  0.07258875  0.73611196  0.55267882    -0.80000
N547        N  0.18255114  0.71688260  0.70962555    -0.27500
N548        N  0.19204234  0.72647528  0.71545916    -0.35400
C549        C  0.20154774  0.72022934  0.72735704     0.00800
C550        C  0.19798342  0.70592214  0.72947830     0.06800
C551        C  0.18581612  0.70407422  0.71798033    -0.06300
H552        H  0.21080123  0.72562454  0.73344286     0.07500
H553        H  0.18025447  0.69408677  0.71514746     0.08700
Cu554      Cu  0.19307962  0.74727112  0.70559309     0.44200
Cu555      Cu  0.16690906  0.72287348  0.68920079     0.42000
Cu556      Cu  0.17500883  0.75788124  0.66333636     0.43900
N557        N  0.19743967  0.76623996  0.69179116    -0.34900
N558        N  0.19139729  0.77029842  0.67544660    -0.29200
C559        C  0.19758842  0.78269721  0.66971794    -0.05300
C560        C  0.20787950  0.78651040  0.68338312     0.07000
C561        C  0.20740204  0.77580690  0.69707743     0.00800
H562        H  0.19487681  0.78842715  0.65664931     0.08400
H563        H  0.21417200  0.77470326  0.70969548     0.07500
N564        N  0.15701572  0.74484631  0.65884965    -0.36400
N565        N  0.15386986  0.73286048  0.66823510    -0.28500
C566        C  0.14095515  0.72813151  0.66202575    -0.03800
C567        C  0.13577778  0.73743004  0.64797656     0.04800
C568        C  0.14629176  0.74784968  0.64638268     0.02900
H569        H  0.13579010  0.71851062  0.66723191     0.08000
H570        H  0.14604802  0.75718067  0.63710929     0.06900
C571        C  0.06954215  0.72993973  0.39439618     0.80000
N572        N  0.07031923  0.72930135  0.41415985    -0.78300
C573        C  0.05793444  0.72852704  0.42484731     0.82400
N574        N  0.04504787  0.72855115  0.41563646    -0.78300
C575        C  0.04411421  0.72943728  0.39626031     0.82500
N576        N  0.05634925  0.73019385  0.38563763    -0.80000
N577        N  0.18634200  0.71889878  0.26782285    -0.27500
N578        N  0.19416390  0.72911221  0.25996630    -0.35400
C579        C  0.20319905  0.72333437  0.24691102     0.00800
C580        C  0.20119525  0.70863915  0.24609843     0.06800
C581        C  0.19036728  0.70608919  0.25965605    -0.06300
H582        H  0.21141800  0.72933874  0.23946069     0.07500
H583        H  0.18641002  0.69569101  0.26406777     0.08700
Cu584      Cu  0.19495172  0.75012288  0.26934784     0.44200
Cu585      Cu  0.17211513  0.72439485  0.29073835     0.42000
Cu586      Cu  0.18091519  0.76033455  0.31439339     0.43900
N587        N  0.20217365  0.76796810  0.28396090    -0.34900
N588        N  0.19744333  0.77192809  0.30119043    -0.29200
C589        C  0.20530133  0.78326300  0.30737176    -0.05300
C590        C  0.21542664  0.78640524  0.29321928     0.07000
C591        C  0.21305367  0.77646131  0.27866251     0.00800
H592        H  0.20402600  0.78853506  0.32126405     0.08400
H593        H  0.21914535  0.77508883  0.26544143     0.07500
N594        N  0.16396878  0.74675243  0.32227752    -0.36400
N595        N  0.16053452  0.73437137  0.31376159    -0.28500
C596        C  0.14861320  0.72921720  0.32243598    -0.03800
C597        C  0.14446253  0.73860363  0.33722856     0.04800
C598        C  0.15449477  0.74954785  0.33664018     0.02900
H599        H  0.14344267  0.71922796  0.31844302     0.08000
H600        H  0.15474038  0.75905292  0.34579294     0.06900
C601        C  0.43358876  0.76474642  0.89692560     0.80000
N602        N  0.44692490  0.76760171  0.88949078    -0.78300
C603        C  0.45867314  0.76785042  0.90135583     0.82400
N604        N  0.45696496  0.76559834  0.92053507    -0.78300
C605        C  0.44380124  0.76292194  0.92813045     0.82500
N606        N  0.43218447  0.76255484  0.91625417    -0.80000
N607        N  0.32368612  0.78530986  0.75499429    -0.27500
N608        N  0.31502425  0.77544719  0.74773772    -0.35400
C609        C  0.30567814  0.78167123  0.73553446     0.00800
C610        C  0.30850936  0.79623342  0.73469733     0.06800
C611        C  0.32002258  0.79824893  0.74730957    -0.06300
H612        H  0.29692722  0.77608824  0.72848503     0.07500
H613        H  0.32481313  0.80841496  0.75136673     0.08700
Cu614      Cu  0.31451923  0.75430825  0.75662007     0.44200
Cu615      Cu  0.33878150  0.77961480  0.77642446     0.42000
Cu616      Cu  0.33220661  0.74365228  0.79967500     0.43900
N617        N  0.30963486  0.73566153  0.77106862    -0.34900
N618        N  0.31563534  0.73163374  0.78746605    -0.29200
C619        C  0.30897067  0.71965420  0.79374600    -0.05300
C620        C  0.29832802  0.71609442  0.78049812     0.07000
C621        C  0.29914237  0.72648677  0.76637619     0.00800
H622        H  0.31147854  0.71415432  0.80705915     0.08400
H623        H  0.29223423  0.72768919  0.75390863     0.07500
N624        N  0.34906348  0.75754937  0.80642196    -0.36400
N625        N  0.35167942  0.77005765  0.79801030    -0.28500
C626        C  0.36384472  0.77554446  0.80566546    -0.03800
C627        C  0.36903100  0.76618960  0.81965977     0.04800
C628        C  0.35934506  0.75493735  0.81969609     0.02900
H629        H  0.36850222  0.78569268  0.80147215     0.08000
H630        H  0.35987670  0.74535130  0.82848357     0.06900
C631        C  0.44055765  0.76983666  0.07237702     0.80000
N632        N  0.45305996  0.77540612  0.07971735    -0.78300
C633        C  0.46500819  0.77622796  0.06826432     0.82400
N634        N  0.46436755  0.77162243  0.04970986    -0.78300
C635        C  0.45211661  0.76616922  0.04220335     0.82500
N636        N  0.44020543  0.76538582  0.05354184    -0.80000
N637        N  0.33283377  0.78983557  0.21749545    -0.27500
N638        N  0.32593741  0.77915738  0.22578279    -0.35400
C639        C  0.31785387  0.78434000  0.24033358     0.00800
C640        C  0.31960179  0.79908479  0.24164988     0.06800
C641        C  0.32919011  0.80228226  0.22681113    -0.06300
H642        H  0.31029167  0.77795510  0.24842952     0.07500
H643        H  0.33243623  0.81290820  0.22230345     0.08700
Cu644      Cu  0.32502101  0.75841300  0.21501387     0.44200
Cu645      Cu  0.34519340  0.78570195  0.19249906     0.42000
Cu646      Cu  0.33727647  0.74980096  0.16808775     0.43900
N647        N  0.31803080  0.74043076  0.20024065    -0.34900
N648        N  0.32198550  0.73705350  0.18244357    -0.29200
C649        C  0.31427754  0.72548030  0.17659612    -0.05300
C650        C  0.30505815  0.72156832  0.19154023     0.07000
C651        C  0.30785791  0.73131708  0.20620942     0.00800
H652        H  0.31495427  0.72060340  0.16238231     0.08400
H653        H  0.30242594  0.73218142  0.21999726     0.07500
N654        N  0.35344056  0.76439274  0.15981127    -0.36400
N655        N  0.35631391  0.77683972  0.16852784    -0.28500
C656        C  0.36799546  0.78262765  0.16009289    -0.03800
C657        C  0.37279215  0.77353417  0.14532238     0.04800
C658        C  0.36319220  0.76213519  0.14558416     0.02900
H659        H  0.37282223  0.79264594  0.16470027     0.08000
H660        H  0.36361853  0.75253972  0.13660469     0.06900
N661        N  0.28866775  0.82156738  0.70410723    -0.27500
N662        N  0.27815719  0.81501883  0.71331469    -0.35400
C663        C  0.28379263  0.80609214  0.72651948     0.00800
C664        C  0.29864345  0.80701045  0.72597342     0.06800
C665        C  0.30142407  0.81692169  0.71147531    -0.06300
H666        H  0.27753490  0.79871585  0.73507476     0.07500
H667        H  0.31188967  0.81979227  0.70587655     0.08700
Cu668      Cu  0.25670418  0.81608451  0.70542773     0.44200
Cu669      Cu  0.28399218  0.83498975  0.68048781     0.42000
Cu670      Cu  0.24798638  0.82763707  0.65806121     0.43900
N671        N  0.23795135  0.81038016  0.69142789    -0.34900
N672        N  0.23471158  0.81400747  0.67354988    -0.29200
C673        C  0.22276738  0.80685281  0.66804315    -0.05300
C674        C  0.21844126  0.79828544  0.68328028     0.07000
C675        C  0.22829438  0.80091427  0.69781515     0.00800
H676        H  0.21806478  0.80728776  0.65377297     0.08400
H677        H  0.22899171  0.79563378  0.71164922     0.07500
N678        N  0.26250455  0.84301722  0.64865211    -0.36400
N679        N  0.27498412  0.84618180  0.65692528    -0.28500
C680        C  0.28056136  0.85770160  0.64788410    -0.03800
C681        C  0.27131480  0.86174221  0.63308346     0.04800
C682        C  0.26004356  0.85217171  0.63402560     0.02900
H683        H  0.29057718  0.86281033  0.65183831     0.08000
H684        H  0.25038930  0.85227010  0.62526402     0.06900
C685        C  0.27249371  0.93855216  0.58069643     0.80000
N686        N  0.27511153  0.95172485  0.58891238    -0.78300
C687        C  0.27472376  0.96385894  0.57807522     0.82400
N688        N  0.27190598  0.96279310  0.55899318    -0.78300
C689        C  0.26932669  0.94986670  0.55043807     0.82500
N690        N  0.26974155  0.93767982  0.56132181    -0.80000
N691        N  0.29821084  0.82284936  0.27349794    -0.27500
N692        N  0.28829094  0.81470628  0.26530228    -0.35400
C693        C  0.29448362  0.80604259  0.25208348     0.00800
C694        C  0.30906647  0.80872058  0.25151980     0.06800
C695        C  0.31116286  0.81946037  0.26540207    -0.06300
H696        H  0.28882878  0.79778656  0.24408030     0.07500
H697        H  0.32136405  0.82389689  0.26994471     0.08700
Cu698      Cu  0.26693787  0.81340166  0.27346498     0.44200
Cu699      Cu  0.29268491  0.83689949  0.29648381     0.42000
Cu700      Cu  0.25634158  0.82768605  0.31748934     0.43900
N701        N  0.24771578  0.80767817  0.28619275    -0.34900
N702        N  0.24367768  0.81267322  0.30324973    -0.29200
C703        C  0.23126744  0.80627291  0.30841626    -0.05300
C704        C  0.22739440  0.79678499  0.29376084     0.07000
C705        C  0.23809353  0.79801426  0.27993449     0.00800
H706        H  0.22566014  0.80817912  0.32191026     0.08400
H707        H  0.23910468  0.79198053  0.26656463     0.07500
N708        N  0.26957337  0.84432890  0.32663134    -0.36400
N709        N  0.28216700  0.84807496  0.31921989    -0.28500
C710        C  0.28668537  0.86006183  0.32855894    -0.03800
C711        C  0.27653829  0.86387914  0.34253629     0.04800
C712        C  0.26592252  0.85362062  0.34080653     0.02900
H713        H  0.29662290  0.86557597  0.32542080     0.08000
H714        H  0.25595901  0.85314416  0.34889510     0.06900
C715        C  0.27909604  0.93744401  0.40388313     0.80000
N716        N  0.27672514  0.93458012  0.42289612    -0.78300
C717        C  0.27627167  0.94540658  0.43619894     0.82400
N718        N  0.27839213  0.95914529  0.43038321    -0.78300
C719        C  0.28075112  0.96225437  0.41157357     0.82500
N720        N  0.28105705  0.95138076  0.39822314    -0.80000
C721        C  0.43615084  0.23082091  0.91686113     0.80000
N722        N  0.43592367  0.23361063  0.93629995    -0.78300
C723        C  0.44793954  0.23139159  0.94720607     0.82400
N724        N  0.46007322  0.22624265  0.93859442    -0.78300
C725        C  0.46055382  0.22338242  0.91945214     0.82500
N726        N  0.44859125  0.22570127  0.90846917    -0.80000
N727        N  0.32407093  0.21900995  0.77760235    -0.27500
N728        N  0.31594948  0.22957306  0.77076522    -0.35400
C729        C  0.30634615  0.22426742  0.75828535     0.00800
C730        C  0.30834747  0.20954078  0.75685766     0.06800
C731        C  0.31975764  0.20646545  0.76933269    -0.06300
H732        H  0.29785251  0.23061061  0.75164635     0.07500
H733        H  0.32393265  0.19589552  0.77302482     0.08700
Cu734      Cu  0.31595097  0.25037722  0.78100502     0.44200
Cu735      Cu  0.33907531  0.22371274  0.79948393     0.42000
Cu736      Cu  0.33185355  0.25967913  0.82523946     0.43900
N737        N  0.30956578  0.26827847  0.79652458    -0.34900
N738        N  0.31485094  0.27199148  0.81350130    -0.29200
C739        C  0.30731969  0.28364959  0.82012827    -0.05300
C740        C  0.29685787  0.28724440  0.80648139     0.07000
C741        C  0.29871578  0.27721126  0.79182724     0.00800
H742        H  0.30914277  0.28893717  0.83387029     0.08400
H743        H  0.29235868  0.27613479  0.77882777     0.07500
N744        N  0.34919657  0.24536658  0.83059345    -0.36400
N745        N  0.35186664  0.23300238  0.82136187    -0.28500
C746        C  0.36426991  0.22727939  0.82821509    -0.03800
C747        C  0.36967977  0.23629050  0.84251103     0.04800
C748        C  0.35977539  0.24760958  0.84360767     0.02900
H749        H  0.36898179  0.21720109  0.82317325     0.08000
H750        H  0.36037349  0.25701285  0.85291155     0.06900
C751        C  0.43595610  0.23595928  0.09456213     0.80000
N752        N  0.43333055  0.23775081  0.07532791    -0.78300
C753        C  0.44387764  0.23524335  0.06207643     0.82400
N754        N  0.45704304  0.23081467  0.06819398    -0.78300
C755        C  0.45991612  0.22892014  0.08717101     0.82500
N756        N  0.44933507  0.23145924  0.10050332    -0.80000
N757        N  0.32157813  0.21572703  0.22783137    -0.27500
N758        N  0.31132810  0.22523674  0.23208867    -0.35400
C759        C  0.30123837  0.21905710  0.24289981     0.00800
C760        C  0.30512337  0.20485699  0.24589842     0.06800
C761        C  0.31819325  0.20301424  0.23618109    -0.06300
H762        H  0.29145459  0.22446572  0.24770912     0.07500
H763        H  0.32435616  0.19309494  0.23454591     0.08700
Cu764      Cu  0.31008395  0.24593078  0.22195291     0.44200
Cu765      Cu  0.33843338  0.22177850  0.20939934     0.42000
Cu766      Cu  0.33196876  0.25892411  0.18604548     0.43900
N767        N  0.30616567  0.26561895  0.20960435    -0.34900
N768        N  0.31400519  0.27096800  0.19556521    -0.29200
C769        C  0.30816450  0.28386211  0.19041559    -0.05300
C770        C  0.29610575  0.28655001  0.20200779     0.07000
C771        C  0.29529990  0.27469111  0.21389275     0.00800
H772        H  0.31231216  0.29069301  0.17916448     0.08400
H773        H  0.28726339  0.27261206  0.22480420     0.07500
N774        N  0.34980602  0.24502936  0.18194083    -0.36400
N775        N  0.35226345  0.23230513  0.19006312    -0.28500
C776        C  0.36512805  0.22714120  0.18376814    -0.03800
C777        C  0.37106228  0.23696559  0.17106285     0.04800
C778        C  0.36097743  0.24812023  0.17035706     0.02900
H779        H  0.36972742  0.21686625  0.18799980     0.08000
H780        H  0.36168229  0.25794068  0.16212016     0.06900
C781        C  0.27578477  0.07261638  0.59005382     0.80000
N782        N  0.27995941  0.07414758  0.57128425    -0.78300
C783        C  0.28431107  0.06247795  0.56069676     0.82400
N784        N  0.28417846  0.04925944  0.56886267    -0.78300
C785        C  0.27966850  0.04740072  0.58725643     0.82500
N786        N  0.27544703  0.05913766  0.59795683    -0.80000
N787        N  0.28677544  0.18510657  0.72720598    -0.27500
N788        N  0.27686915  0.19386793  0.73461730    -0.35400
C789        C  0.28306276  0.20293614  0.74715859     0.00800
C790        C  0.29765771  0.19982023  0.74799154     0.06800
C791        C  0.29971118  0.18838885  0.73509323    -0.06300
H792        H  0.27744258  0.21174214  0.75438611     0.07500
H793        H  0.30989022  0.18346531  0.73090169     0.08700
Cu794      Cu  0.25575120  0.19489465  0.72533413     0.44200
Cu795      Cu  0.28103849  0.17063862  0.70524392     0.42000
Cu796      Cu  0.24557821  0.17878299  0.68047009     0.43900
N797        N  0.23709921  0.20048310  0.71085539    -0.34900
N798        N  0.23328053  0.19524873  0.69384372    -0.29200
C799        C  0.22128600  0.20242470  0.68791784    -0.05300
C800        C  0.21749231  0.21256577  0.70202496     0.07000
C801        C  0.22777676  0.21090419  0.71627952     0.00800
H802        H  0.21592605  0.20061944  0.67426451     0.08400
H803        H  0.22884498  0.21725570  0.72935212     0.07500
N804        N  0.25939724  0.16118032  0.67411612    -0.36400
N805        N  0.27161848  0.15821232  0.68330399    -0.28500
C806        C  0.27705450  0.14563983  0.67648368    -0.03800
C807        C  0.26801559  0.14038940  0.66221408     0.04800
C808        C  0.25696702  0.15059220  0.66104157     0.02900
H809        H  0.28691154  0.14064651  0.68163346     0.08000
H810        H  0.24756066  0.15009232  0.65183999     0.06900
C811        C  0.28348483  0.07064076  0.41355732     0.80000
N812        N  0.28392255  0.07458615  0.43257819    -0.78300
C813        C  0.28681012  0.06464456  0.44640666     0.82400
N814        N  0.28912998  0.05071303  0.44109323    -0.78300
C815        C  0.28843809  0.04646378  0.42235174     0.82500
N816        N  0.28561122  0.05646571  0.40852278    -0.80000
N817        N  0.28563343  0.17913107  0.27571515    -0.27500
N818        N  0.27509996  0.18668707  0.26770374    -0.35400
C819        C  0.28060519  0.19589889  0.25501265     0.00800
C820        C  0.29540795  0.19424356  0.25471818     0.06800
C821        C  0.29832654  0.18343197  0.26805228    -0.06300
H822        H  0.27428633  0.20393968  0.24743218     0.07500
H823        H  0.30884673  0.17971367  0.27275113     0.08700
Cu824      Cu  0.25385489  0.18682416  0.27630050     0.44200
Cu825      Cu  0.28095686  0.16501813  0.29830454     0.42000
Cu826      Cu  0.24458277  0.17394395  0.32153600     0.43900
N827        N  0.23530613  0.19364583  0.29012939    -0.34900
N828        N  0.23163237  0.18940004  0.30755598    -0.29200
C829        C  0.21978538  0.19703298  0.31321697    -0.05300
C830        C  0.21600980  0.20653571  0.29851312     0.07000
C831        C  0.22612689  0.20396063  0.28418497     0.00800
H832        H  0.21465870  0.19613951  0.32717755     0.08400
H833        H  0.22720568  0.20965468  0.27070928     0.07500
N834        N  0.25935157  0.15788369  0.33033364    -0.36400
N835        N  0.27179501  0.15437139  0.32190578    -0.28500
C836        C  0.27777484  0.14312096  0.33137231    -0.03800
C837        C  0.26885344  0.13951271  0.34659563     0.04800
C838        C  0.25734751  0.14912768  0.34548919     0.02900
H839        H  0.28803585  0.13813495  0.32769297     0.08000
H840        H  0.24802990  0.14958502  0.35488916     0.06900
C841        C  0.22366922  0.44407671  0.90874738     0.80000
N842        N  0.22317185  0.44190818  0.92830070    -0.78300
C843        C  0.22065847  0.45325568  0.94058955     0.82400
N844        N  0.21874622  0.46659434  0.93316880    -0.78300
C845        C  0.21942726  0.46901609  0.91403474     0.82500
N846        N  0.22193641  0.45776237  0.90175047    -0.80000
N847        N  0.21747499  0.32858362  0.77831049    -0.27500
N848        N  0.22734093  0.31928513  0.77203796    -0.35400
C849        C  0.22149634  0.31031936  0.75908537     0.00800
C850        C  0.20715682  0.31400257  0.75668959     0.06800
C851        C  0.20487431  0.32569854  0.76916923    -0.06300
H852        H  0.22714941  0.30122052  0.75258907     0.07500
H853        H  0.19470323  0.33110074  0.77218080     0.08700
Cu854      Cu  0.24783533  0.31726357  0.78300493     0.44200
Cu855      Cu  0.22281690  0.34319977  0.80062570     0.42000
Cu856      Cu  0.25713793  0.33247814  0.82759205     0.43900
N857        N  0.26588127  0.31073219  0.79791602    -0.34900
N858        N  0.26958841  0.31582527  0.81501574    -0.29200
C859        C  0.28148598  0.30851588  0.82105415    -0.05300
C860        C  0.28527703  0.29840456  0.80688421     0.07000
C861        C  0.27508910  0.30022539  0.79253908     0.00800
H862        H  0.28686065  0.31031183  0.83469893     0.08400
H863        H  0.27416554  0.29413129  0.77923158     0.07500
N864        N  0.24359442  0.35025138  0.83399618    -0.36400
N865        N  0.23194391  0.35440826  0.82426199    -0.28500
C866        C  0.22672371  0.36671891  0.83237561    -0.03800
C867        C  0.23527934  0.37036231  0.84807376     0.04800
C868        C  0.24580116  0.35964077  0.84861633     0.02900
H869        H  0.21718426  0.37243474  0.82747150     0.08000
H870        H  0.25462300  0.35884403  0.85877679     0.06900
C871        C  0.23784769  0.43537520  0.08521316     0.80000
N872        N  0.24094649  0.44905587  0.09114147    -0.78300
C873        C  0.24017474  0.46013412  0.07851124     0.82400
N874        N  0.23657993  0.45749372  0.05991071    -0.78300
C875        C  0.23354996  0.44396319  0.05366822     0.82500
N876        N  0.23421747  0.43282412  0.06638694    -0.80000
N877        N  0.21428263  0.32369005  0.22040604    -0.27500
N878        N  0.22451537  0.31605092  0.22890757    -0.35400
C879        C  0.21869662  0.30719874  0.24180948     0.00800
C880        C  0.20395580  0.30922580  0.24184197     0.06800
C881        C  0.20140905  0.31980817  0.22799375    -0.06300
H882        H  0.22475460  0.29923575  0.24989377     0.07500
H883        H  0.19102159  0.32376475  0.22311302     0.08700
Cu884      Cu  0.24580185  0.31598154  0.22104870     0.44200
Cu885      Cu  0.22014546  0.33766344  0.19795548     0.42000
Cu886      Cu  0.26049749  0.33548543  0.18370297     0.43900
N887        N  0.26554551  0.31076681  0.20952038    -0.34900
N888        N  0.27159257  0.31767431  0.19513677    -0.29200
C889        C  0.28395524  0.31057928  0.19019292    -0.05300
C890        C  0.28549057  0.29863924  0.20218827     0.07000
C891        C  0.27358856  0.29926287  0.21416508     0.00800
H892        H  0.29096355  0.31354913  0.17842450     0.08400
H893        H  0.27059995  0.29159855  0.22510021     0.07500
N894        N  0.24491315  0.35019503  0.17351984    -0.36400
N895        N  0.23090328  0.35057572  0.17765074    -0.28500
C896        C  0.22454929  0.36097059  0.16696240    -0.03800
C897        C  0.23498628  0.36759743  0.15590849     0.04800
C898        C  0.24772163  0.36051636  0.16052886     0.02900
H899        H  0.21316951  0.36366631  0.16743728     0.08000
H900        H  0.25826791  0.36245162  0.15444295     0.06900
C901        C  0.06827323  0.28279453  0.59086198     0.80000
N902        N  0.05421309  0.28512756  0.59628080    -0.78300
C903        C  0.04343829  0.28377464  0.58299309     0.82400
N904        N  0.04680223  0.28028292  0.56449055    -0.78300
C905        C  0.06062976  0.27798434  0.55886569     0.82500
N906        N  0.07132953  0.27934054  0.57209547    -0.80000
N907        N  0.18203320  0.29539542  0.72434351    -0.27500
N908        N  0.18921361  0.28461637  0.73238816    -0.35400
C909        C  0.19815786  0.28976907  0.74584755     0.00800
C910        C  0.19669914  0.30458260  0.74671447     0.06800
C911        C  0.18633759  0.30788467  0.73280039    -0.06300
H912        H  0.20583935  0.28320131  0.75372428     0.07500
H913        H  0.18284872  0.31854206  0.72841369     0.08700
Cu914      Cu  0.18900242  0.26339901  0.72336173     0.44200
Cu915      Cu  0.16804448  0.29130717  0.70098985     0.42000
Cu916      Cu  0.17540517  0.25425432  0.67863240     0.43900
N917        N  0.19475569  0.24429599  0.70988897    -0.34900
N918        N  0.19022163  0.24068474  0.69250325    -0.29200
C919        C  0.19705293  0.22833637  0.68696610    -0.05300
C920        C  0.20631712  0.22412444  0.70175118     0.07000
C921        C  0.20445981  0.23453117  0.71598823     0.00800
H922        H  0.19572905  0.22309596  0.67308409     0.08400
H923        H  0.21024022  0.23537187  0.72949346     0.07500
N924        N  0.15937046  0.26904253  0.67027916    -0.36400
N925        N  0.15635551  0.28186109  0.67807985    -0.28500
C926        C  0.14477507  0.28756433  0.66885009    -0.03800
C927        C  0.14045201  0.27798913  0.65449388     0.04800
C928        C  0.14997952  0.26644316  0.65595979     0.02900
H929        H  0.13997168  0.29798424  0.67218494     0.08000
H930        H  0.14996690  0.25663895  0.64738216     0.06900
C931        C  0.06945278  0.27387963  0.41439672     0.80000
N932        N  0.05673467  0.27787523  0.40580836    -0.78300
C933        C  0.04443711  0.27898450  0.41653237     0.82400
N934        N  0.04494773  0.27627594  0.43567664    -0.78300
C935        C  0.05743042  0.27240829  0.44445686     0.82500
N936        N  0.06970238  0.27127341  0.43377982    -0.80000
N937        N  0.17993038  0.28919501  0.27339761    -0.27500
N938        N  0.18817541  0.27886836  0.26590203    -0.35400
C939        C  0.19678337  0.28445536  0.25244293     0.00800
C940        C  0.19394749  0.29907094  0.25105782     0.06800
C941        C  0.18318141  0.30179276  0.26468462    -0.06300
H942        H  0.20521163  0.27843648  0.24500947     0.07500
H943        H  0.17871814  0.31221725  0.26876300     0.08700
Cu944      Cu  0.18945666  0.25797089  0.27595944     0.44200
Cu945      Cu  0.16608511  0.28459087  0.29647333     0.42000
Cu946      Cu  0.17236912  0.24794666  0.31923243     0.43900
N947        N  0.19433630  0.23888268  0.28985710    -0.34900
N948        N  0.18847785  0.23496255  0.30634596    -0.29200
C949        C  0.19489293  0.22250403  0.31207666    -0.05300
C950        C  0.20522278  0.21849822  0.29837845     0.07000
C951        C  0.20445692  0.22917712  0.28457347     0.00800
H952        H  0.19242152  0.21693679  0.32531112     0.08400
H953        H  0.21114237  0.23015130  0.27186424     0.07500
N954        N  0.15619455  0.26298950  0.32709678    -0.36400
N955        N  0.15388600  0.27572139  0.31895445    -0.28500
C956        C  0.14216659  0.28195997  0.32717011    -0.03800
C957        C  0.13681797  0.27286687  0.34121782     0.04800
C958        C  0.14605003  0.26097611  0.34074683     0.02900
H959        H  0.13779701  0.29236370  0.32307190     0.08000
H960        H  0.14521035  0.25131966  0.34931516     0.06900
C961        C  0.08302838  0.27242539  0.40293245    -0.05500
C962        C  0.09472283  0.26425830  0.41011280    -0.05400
C963        C  0.10753496  0.26272173  0.39955218    -0.23600
C964        C  0.10905205  0.26947661  0.38164272     0.18700
C965        C  0.09751779  0.27794598  0.37439749     0.15900
C966        C  0.08454167  0.27923728  0.38494954    -0.18600
C967        C  0.09918237  0.28500486  0.35671976    -0.20400
C968        C  0.11204413  0.28357016  0.34623001    -0.13000
C969        C  0.12347162  0.27487611  0.35300720     0.03700
C970        C  0.12188196  0.26788409  0.37084918    -0.25100
H971        H  0.09392165  0.25887249  0.42387575     0.08800
H972        H  0.11626677  0.25624435  0.40541790     0.12400
H973        H  0.07571912  0.28569736  0.37928157     0.12300
H974        H  0.09050817  0.29160688  0.35095087     0.12100
H975        H  0.11289166  0.28901905  0.33252723     0.12600
H976        H  0.13064579  0.26129136  0.37640325     0.14600
C977        C  0.05731200  0.26998626  0.46558611    -0.05500
C978        C  0.04450786  0.26529921  0.47427223    -0.05400
C979        C  0.04319775  0.26474315  0.49427438    -0.23600
C980        C  0.05460852  0.26907554  0.50608827     0.18700
C981        C  0.06779986  0.27326169  0.49769130     0.15900
C982        C  0.06915401  0.27353087  0.47739124    -0.18600
C983        C  0.07911810  0.27766933  0.50979188    -0.20400
C984        C  0.07711264  0.27856025  0.52986420    -0.13000
C985        C  0.06376068  0.27506850  0.53815740     0.03700
C986        C  0.05273547  0.26989065  0.52613912    -0.25100
H987        H  0.03529883  0.26235789  0.46552796     0.08800
H988        H  0.03306147  0.26140434  0.50049851     0.12400
H989        H  0.07905316  0.27722690  0.47086353     0.12300
H990        H  0.08934239  0.28086791  0.50370392     0.12100
H991        H  0.08579932  0.28256207  0.53879270     0.12600
H992        H  0.04244221  0.26697949  0.53232778     0.14600
C993        C  0.08038380  0.28411693  0.60494402    -0.05500
C994        C  0.07867857  0.29135278  0.62276086    -0.05400
C995        C  0.09027486  0.29243441  0.63575946    -0.23600
C996        C  0.10375890  0.28610822  0.63132771     0.18700
C997        C  0.10554063  0.27890654  0.61341080     0.15900
C998        C  0.09398409  0.27808555  0.60037793    -0.18600
C999        C  0.11879667  0.27233878  0.60886813    -0.20400
C1000       C  0.13008260  0.27245491  0.62214636    -0.13000
C1001       C  0.12851744  0.27930465  0.64021107     0.03700
C1002       C  0.11537103  0.28646524  0.64458073    -0.25100
H1003       H  0.06839598  0.29623772  0.62662285     0.08800
H1004       H  0.08863505  0.29803851  0.64937515     0.12400
H1005       H  0.09554895  0.27242587  0.58677555     0.12300
H1006       H  0.12036049  0.26683782  0.59515632     0.12100
H1007       H  0.14010578  0.26706101  0.61825243     0.12600
H1008       H  0.11398959  0.29173706  0.65848240     0.14600
C1009       C  0.23925552  0.42337356  0.09907926    -0.05500
C1010       C  0.25097337  0.42310897  0.11190563    -0.05400
C1011       C  0.25254819  0.41202593  0.12530394    -0.23600
C1012       C  0.24220343  0.40116786  0.12650063     0.18700
C1013       C  0.23012904  0.40149143  0.11403282     0.15900
C1014       C  0.22887136  0.41244785  0.10009381    -0.18600
C1015       C  0.21948867  0.39092949  0.11591104    -0.20400
C1016       C  0.22087810  0.38012461  0.12986587    -0.13000
C1017       C  0.23309126  0.37945770  0.14183920     0.03700
C1018       C  0.24372233  0.39004573  0.14005052    -0.25100
H1019       H  0.25906841  0.43143328  0.11137994     0.08800
H1020       H  0.26179832  0.41201620  0.13483475     0.12400
H1021       H  0.21968509  0.41270935  0.09044412     0.12300
H1022       H  0.21009371  0.39104327  0.10664040     0.12100
H1023       H  0.21256960  0.37205528  0.13097679     0.12600
H1024       H  0.25307619  0.38973956  0.14940800     0.14600
C1025       C  0.22014412  0.45183075  0.96199808    -0.05500
C1026       C  0.21433163  0.46342848  0.97290402    -0.05400
C1027       C  0.21516785  0.46366243  0.99293276    -0.23600
C1028       C  0.22172978  0.45223436  0.00271302     0.18700
C1029       C  0.22703654  0.44012003  0.99226503     0.15900
C1030       C  0.22619983  0.43995291  0.97185603    -0.18600
C1031       C  0.23342113  0.42864898  0.00248737    -0.20400
C1032       C  0.23491968  0.42944222  0.02267406    -0.13000
C1033       C  0.23019884  0.44177321  0.03291856     0.03700
C1034       C  0.22337463  0.45299091  0.02278886    -0.25100
H1035       H  0.20936214  0.47264374  0.96592325     0.08800
H1036       H  0.21092009  0.47295100  0.00075291     0.12400
H1037       H  0.23069423  0.43093227  0.96373561     0.12300
H1038       H  0.23752918  0.41922479  0.99485244     0.12100
H1039       H  0.24031305  0.42070072  0.03015810     0.12600
H1040       H  0.21959946  0.46252229  0.03053605     0.14600
C1041       C  0.23350481  0.38271385  0.86179711    -0.05500
C1042       C  0.23643566  0.38080657  0.88152145    -0.05400
C1043       C  0.23492429  0.39229052  0.89467287    -0.23600
C1044       C  0.23077094  0.40606488  0.88832082     0.18700
C1045       C  0.22802942  0.40819369  0.86846299     0.15900
C1046       C  0.22918092  0.39647324  0.85537233    -0.18600
C1047       C  0.22427774  0.42203977  0.86203094    -0.20400
C1048       C  0.22312388  0.43361024  0.87509101    -0.13000
C1049       C  0.22552195  0.43164908  0.89498703     0.03700
C1050       C  0.22937775  0.41773429  0.90146264    -0.25100
H1051       H  0.23972664  0.37031689  0.88684103     0.08800
H1052       H  0.23711042  0.39041226  0.90980237     0.12400
H1053       H  0.22705176  0.39811922  0.84016981     0.12300
H1054       H  0.22222925  0.42393884  0.84687116     0.12100
H1055       H  0.22012902  0.44411565  0.86954795     0.12600
H1056       H  0.23136790  0.41597706  0.91667145     0.14600
C1057       C  0.27111604  0.12814409  0.36128526    -0.05500
C1058       C  0.26735160  0.13090800  0.38061202    -0.05400
C1059       C  0.26922382  0.12030507  0.39466392    -0.23600
C1060       C  0.27456330  0.10656823  0.38957202     0.18700
C1061       C  0.27817846  0.10355208  0.37011826     0.15900
C1062       C  0.27668134  0.11444390  0.35613286    -0.18600
C1063       C  0.28308915  0.08965347  0.36499814    -0.20400
C1064       C  0.28450827  0.07890535  0.37900970    -0.13000
C1065       C  0.28124806  0.08185481  0.39849828     0.03700
C1066       C  0.27625505  0.09579606  0.40361623    -0.25100
H1067       H  0.26310078  0.14139022  0.38490806     0.08800
H1068       H  0.26636310  0.12281025  0.40948042     0.12400
H1069       H  0.27946170  0.11216774  0.34121955     0.12300
H1070       H  0.28582304  0.08708598  0.35015966     0.12100
H1071       H  0.28841593  0.06832280  0.37459828     0.12600
H1072       H  0.27358711  0.09827138  0.41851061     0.14600
C1073       C  0.28704907  0.06853254  0.46722947    -0.05500
C1074       C  0.27842837  0.07984237  0.47470070    -0.05400
C1075       C  0.27707931  0.08190655  0.49472583    -0.23600
C1076       C  0.28436916  0.07271027  0.50758663     0.18700
C1077       C  0.29368765  0.06185132  0.50008749     0.15900
C1078       C  0.29502600  0.05991043  0.48007539    -0.18600
C1079       C  0.30099101  0.05257962  0.51268622    -0.20400
C1080       C  0.29839125  0.05339878  0.53247552    -0.13000
C1081       C  0.28861175  0.06363267  0.54016133     0.03700
C1082       C  0.28200745  0.07366819  0.52769378    -0.25100
H1083       H  0.27219916  0.08665057  0.46509863     0.08800
H1084       H  0.26994670  0.09035017  0.50013651     0.12400
H1085       H  0.30187417  0.05127455  0.47450015     0.12300
H1086       H  0.30827473  0.04429648  0.50717530     0.12100
H1087       H  0.30374314  0.04567730  0.54178647     0.12600
H1088       H  0.27440833  0.08156766  0.53345171     0.14600
C1089       C  0.27190600  0.08568514  0.60164571    -0.05500
C1090       C  0.26524981  0.09758017  0.59268262    -0.05400
C1091       C  0.26246671  0.11038659  0.60296054    -0.23600
C1092       C  0.26664137  0.11173091  0.62234286     0.18700
C1093       C  0.27337852  0.09986173  0.63153936     0.15900
C1094       C  0.27571069  0.08682552  0.62126681    -0.18600
C1095       C  0.27803385  0.10137612  0.65069819    -0.20400
C1096       C  0.27626856  0.11454215  0.66051593    -0.13000
C1097       C  0.26952424  0.12641130  0.65159893     0.03700
C1098       C  0.26452241  0.12484167  0.63252095    -0.25100
H1099       H  0.26222139  0.09698298  0.57759842     0.08800
H1100       H  0.25734234  0.11934517  0.59561617     0.12400
H1101       H  0.28104262  0.07781996  0.62826697     0.12300
H1102       H  0.28324976  0.09244987  0.65800234     0.12100
H1103       H  0.28009327  0.11539086  0.67524159     0.12600
H1104       H  0.25942628  0.13393135  0.62541583     0.14600
C1105       C  0.38484836  0.23574075  0.15998023    -0.05500
C1106       C  0.39570483  0.22574479  0.16514816    -0.05400
C1107       C  0.40839228  0.22433204  0.15416751    -0.23600
C1108       C  0.41041102  0.23274344  0.13762590     0.18700
C1109       C  0.39964408  0.24293300  0.13250215     0.15900
C1110       C  0.38709864  0.24445543  0.14374520    -0.18600
C1111       C  0.40135969  0.25118694  0.11584756    -0.20400
C1112       C  0.41334495  0.24904262  0.10394381    -0.13000
C1113       C  0.42407140  0.23879722  0.10856227     0.03700
C1114       C  0.42271603  0.23088143  0.12576143    -0.25100
H1115       H  0.39440490  0.21898419  0.17766771     0.08800
H1116       H  0.41650573  0.21646496  0.15842126     0.12400
H1117       H  0.37886907  0.25214126  0.13935389     0.12300
H1118       H  0.39322803  0.25908357  0.11173956     0.12100
H1119       H  0.41416252  0.25536267  0.09092216     0.12600
H1120       H  0.43085976  0.22287142  0.12943285     0.14600
C1121       C  0.44841486  0.23470320  0.96822393    -0.05500
C1122       C  0.46185719  0.23777115  0.97663455    -0.05400
C1123       C  0.46326559  0.23951987  0.99650083    -0.23600
C1124       C  0.45127798  0.23811201  0.00854280     0.18700
C1125       C  0.43754077  0.23555124  0.00044376     0.15900
C1126       C  0.43613887  0.23398076  0.98020762    -0.18600
C1127       C  0.42562915  0.23415382  0.01284846    -0.20400
C1128       C  0.42746170  0.23470895  0.03298080    -0.13000
C1129       C  0.44123670  0.23662026  0.04102776     0.03700
C1130       C  0.45299907  0.23871012  0.02861476    -0.25100
H1131       H  0.47145489  0.23861247  0.96780846     0.08800
H1132       H  0.47384163  0.24159538  0.00248768     0.12400
H1133       H  0.42572233  0.23160526  0.97393825     0.12300
H1134       H  0.41498199  0.23224487  0.00700934     0.12100
H1135       H  0.41821574  0.23306877  0.04223148     0.12600
H1136       H  0.46365978  0.24038240  0.03459501     0.14600
C1137       C  0.42293312  0.23347541  0.90500111    -0.05500
C1138       C  0.41123350  0.24143855  0.91275217    -0.05400
C1139       C  0.39870495  0.24390187  0.90193818    -0.23600
C1140       C  0.39746310  0.23831291  0.88315002     0.18700
C1141       C  0.40908208  0.23026920  0.87513314     0.15900
C1142       C  0.42177707  0.22802537  0.88599321    -0.18600
C1143       C  0.40771083  0.22443836  0.85647447    -0.20400
C1144       C  0.39491782  0.22637236  0.84599823    -0.13000
C1145       C  0.38328125  0.23438950  0.85376610     0.03700
C1146       C  0.38473035  0.24047122  0.87236158    -0.25100
H1147       H  0.41175353  0.24585396  0.92725013     0.08800
H1148       H  0.38992219  0.25008060  0.90836216     0.12400
H1149       H  0.43061902  0.22181801  0.87975855     0.12300
H1150       H  0.41648477  0.21825428  0.85003823     0.12100
H1151       H  0.39420009  0.22169407  0.83166800     0.12600
H1152       H  0.37583885  0.24658383  0.87863161     0.14600
C1153       C  0.28293121  0.97750321  0.40636827    -0.05500
C1154       C  0.27338340  0.98470646  0.39390632    -0.05400
C1155       C  0.27338344  0.99985146  0.39280364    -0.23600
C1156       C  0.28295038  0.00797725  0.40417613     0.18700
C1157       C  0.29313285  0.00063042  0.41583432     0.15900
C1158       C  0.29307320  0.98552032  0.41679121    -0.18600
C1159       C  0.30266081  0.00850040  0.42735562    -0.20400
C1160       C  0.30151375  0.02348415  0.42839847    -0.13000
C1161       C  0.29099637  0.03098960  0.41774344     0.03700
C1162       C  0.28203328  0.02322319  0.40502453    -0.25100
H1163       H  0.26534615  0.97869788  0.38596507     0.08800
H1164       H  0.26550412  0.00521039  0.38374221     0.12400
H1165       H  0.30039078  0.97999904  0.42652667     0.12300
H1166       H  0.31058625  0.00303432  0.43624158     0.12100
H1167       H  0.30858450  0.02923779  0.43816168     0.12600
H1168       H  0.27380157  0.02889669  0.39688515     0.14600
C1169       C  0.27633494  0.87638955  0.35607028    -0.05500
C1170       C  0.26877469  0.87540052  0.37360088    -0.05400
C1171       C  0.26780779  0.88716097  0.38624399    -0.23600
C1172       C  0.27427027  0.90025014  0.38155927     0.18700
C1173       C  0.28183403  0.90150624  0.36394608     0.15900
C1174       C  0.28297766  0.88949466  0.35137566    -0.18600
C1175       C  0.28800403  0.91479085  0.35922125    -0.20400
C1176       C  0.28684732  0.92660917  0.37193846    -0.13000
C1177       C  0.27965339  0.92531699  0.38971102     0.03700
C1178       C  0.27329955  0.91207028  0.39429552    -0.25100
H1179       H  0.26364106  0.86544105  0.37765740     0.08800
H1180       H  0.26195314  0.88602434  0.39966953     0.12400
H1181       H  0.28868098  0.89045322  0.33780754     0.12300
H1182       H  0.29376829  0.91602519  0.34574921     0.12100
H1183       H  0.29186065  0.93667095  0.36804510     0.12600
H1184       H  0.26756190  0.91092956  0.40781793     0.14600
C1185       C  0.27915928  0.97798267  0.58583107    -0.05500
C1186       C  0.29307840  0.98274841  0.58152114    -0.05400
C1187       C  0.29661930  0.99726969  0.58372322    -0.23600
C1188       C  0.28620645  0.00732726  0.59007862     0.18700
C1189       C  0.27242268  0.00253096  0.59573524     0.15900
C1190       C  0.26896055  0.98780744  0.59357527    -0.18600
C1191       C  0.26207235  0.01272940  0.60208176    -0.20400
C1192       C  0.26495985  0.02755788  0.60131815    -0.13000
C1193       C  0.27820515  0.03239619  0.59415215     0.03700
C1194       C  0.28899717  0.02217923  0.58937973    -0.25100
H1195       H  0.30097041  0.97534883  0.57529382     0.08800
H1196       H  0.30724963  0.00075438  0.57942172     0.12400
H1197       H  0.25811510  0.98420968  0.59657415     0.12300
H1198       H  0.25148130  0.00928940  0.60660475     0.12100
H1199       H  0.25643935  0.03523421  0.60484479     0.12600
H1200       H  0.29922422  0.02583553  0.58374288     0.14600
C1201       C  0.26694252  0.94953861  0.52923178    -0.05500
C1202       C  0.26205513  0.96224423  0.52024411    -0.05400
C1203       C  0.26194457  0.96342003  0.50024539    -0.23600
C1204       C  0.26679730  0.95192834  0.48869118     0.18700
C1205       C  0.27097294  0.93874214  0.49728681     0.15900
C1206       C  0.27089314  0.93755028  0.51762003    -0.18600
C1207       C  0.27574074  0.92729040  0.48535973    -0.20400
C1208       C  0.27698628  0.92917073  0.46532056    -0.13000
C1209       C  0.27354897  0.94254362  0.45692102     0.03700
C1210       C  0.26806495  0.95370773  0.46871813    -0.25100
H1211       H  0.25872534  0.97156026  0.52875708     0.08800
H1212       H  0.25855033  0.97353033  0.49384648     0.12400
H1213       H  0.27467386  0.92769221  0.52433089     0.12300
H1214       H  0.27889481  0.91704476  0.49156684     0.12100
H1215       H  0.28114239  0.92035135  0.45651134     0.12600
H1216       H  0.26511294  0.96399021  0.46240871     0.14600
C1217       C  0.27212938  0.87447167  0.62036434    -0.05500
C1218       C  0.26876983  0.87319084  0.60066417    -0.05400
C1219       C  0.26855558  0.88534763  0.58877684    -0.23600
C1220       C  0.27130555  0.89909052  0.59652126     0.18700
C1221       C  0.27458770  0.90046875  0.61637763     0.15900
C1222       C  0.27522569  0.88813955  0.62809384    -0.18600
C1223       C  0.27693524  0.91419276  0.62428373    -0.20400
C1224       C  0.27613601  0.92643748  0.61267624    -0.13000
C1225       C  0.27307175  0.92530127  0.59281712     0.03700
C1226       C  0.27065462  0.91147956  0.58483939    -0.25100
H1227       H  0.26629868  0.86273794  0.59447094     0.08800
H1228       H  0.26599360  0.88403354  0.57362623     0.12400
H1229       H  0.27758220  0.88923190  0.64334622     0.12300
H1230       H  0.27933391  0.91547805  0.63948781     0.12100
H1231       H  0.27798816  0.93685337  0.61935892     0.12600
H1232       H  0.26820242  0.91034095  0.56962838     0.14600
C1233       C  0.42713495  0.76896068  0.08429013    -0.05500
C1234       C  0.41543050  0.76076694  0.07755429    -0.05400
C1235       C  0.40253623  0.76012544  0.08799121    -0.23600
C1236       C  0.40091965  0.76773352  0.10543099     0.18700
C1237       C  0.41250473  0.77606738  0.11241627     0.15900
C1238       C  0.42557979  0.77652782  0.10193257    -0.18600
C1239       C  0.41074606  0.78386400  0.12971842    -0.20400
C1240       C  0.39776049  0.78330000  0.14006269    -0.13000
C1241       C  0.38624104  0.77479211  0.13351494     0.03700
C1242       C  0.38793271  0.76709364  0.11601377    -0.25100
H1243       H  0.41620726  0.75477518  0.06410710     0.08800
H1244       H  0.39378755  0.75369098  0.08235107     0.12400
H1245       H  0.43440409  0.78297277  0.10733338     0.12300
H1246       H  0.41945235  0.79036752  0.13532764     0.12100
H1247       H  0.39690614  0.78928266  0.15349462     0.12600
H1248       H  0.37914943  0.76060879  0.11058659     0.14600
C1249       C  0.44211614  0.76160200  0.94934204    -0.05500
C1250       C  0.42885008  0.76479011  0.95838014    -0.05400
C1251       C  0.42777159  0.76523550  0.97855231    -0.23600
C1252       C  0.43993834  0.76246196  0.99004794     0.18700
C1253       C  0.45315699  0.75864903  0.98105225     0.15900
C1254       C  0.45413633  0.75817684  0.96085073    -0.18600
C1255       C  0.46537807  0.75595098  0.99237181    -0.20400
C1256       C  0.46474484  0.75778893  0.01234889    -0.13000
C1257       C  0.45184110  0.76214095  0.02147789     0.03700
C1258       C  0.43930524  0.76401564  0.01028418    -0.25100
H1259       H  0.41941903  0.76748559  0.94986392     0.08800
H1260       H  0.41753486  0.76814846  0.98513729     0.12400
H1261       H  0.46439645  0.75556415  0.95409126     0.12300
H1262       H  0.47556146  0.75291266  0.98572598     0.12100
H1263       H  0.47450915  0.75614990  0.02066997     0.12600
H1264       H  0.42932593  0.76746002  0.01715335     0.14600
C1265       C  0.42046355  0.76418416  0.88449330    -0.05500
C1266       C  0.40781529  0.75789751  0.89171536    -0.05400
C1267       C  0.39533119  0.75711550  0.88051590    -0.23600
C1268       C  0.39509083  0.76274069  0.86183179     0.18700
C1269       C  0.40754669  0.76941081  0.85444120     0.15900
C1270       C  0.42021517  0.76997771  0.86573399    -0.18600
C1271       C  0.40706476  0.77538749  0.83588486    -0.20400
C1272       C  0.39446217  0.77460700  0.82474664    -0.13000
C1273       C  0.38217711  0.76762264  0.83178344     0.03700
C1274       C  0.38258811  0.76174980  0.85042728    -0.25100
H1275       H  0.40757194  0.75337282  0.90607215     0.08800
H1276       H  0.38585915  0.75207061  0.88648238     0.12400
H1277       H  0.42976908  0.77502708  0.86001314     0.12300
H1278       H  0.41643934  0.78062537  0.82995902     0.12100
H1279       H  0.39443787  0.77917987  0.81041511     0.12600
H1280       H  0.37312784  0.75651875  0.85614179     0.14600
C1281       C  0.13198381  0.73739945  0.35070150    -0.05500
C1282       C  0.13294708  0.74262063  0.36977990    -0.05400
C1283       C  0.12122006  0.74166025  0.38250586    -0.23600
C1284       C  0.10811654  0.73577863  0.37628525     0.18700
C1285       C  0.10698012  0.73067068  0.35705034     0.15900
C1286       C  0.11894499  0.73129256  0.34451350    -0.18600
C1287       C  0.09381250  0.72521895  0.35054512    -0.20400
C1288       C  0.08185333  0.72497320  0.36282297    -0.13000
C1289       C  0.08275082  0.72994513  0.38204831     0.03700
C1290       C  0.09606666  0.73517052  0.38878934    -0.25100
H1291       H  0.14287572  0.74732013  0.37495089     0.08800
H1292       H  0.12235005  0.74568560  0.39713366     0.12400
H1293       H  0.11798330  0.72739717  0.32979286     0.12300
H1294       H  0.09269728  0.72129865  0.33586290     0.12100
H1295       H  0.07182326  0.72079197  0.35719724     0.12600
H1296       H  0.09693192  0.73913853  0.40348464     0.14600
C1297       C  0.06364223  0.73342547  0.51920930    -0.05500
C1298       C  0.07656748  0.73817033  0.51077516    -0.05400
C1299       C  0.07845705  0.73785520  0.49064863    -0.23600
C1300       C  0.06750705  0.73266962  0.47852175     0.18700
C1301       C  0.05461148  0.72768775  0.48697700     0.15900
C1302       C  0.05275273  0.72814189  0.50708549    -0.18600
C1303       C  0.04363272  0.72240062  0.47521083    -0.20400
C1304       C  0.04518523  0.72231932  0.45524175    -0.13000
C1305       C  0.05774276  0.72755792  0.44634056     0.03700
C1306       C  0.06905235  0.73254257  0.45816663    -0.25100
H1307       H  0.08516174  0.74233926  0.51972142     0.08800
H1308       H  0.08844246  0.74173881  0.48458236     0.12400
H1309       H  0.04276762  0.72434340  0.51328462     0.12300
H1310       H  0.03372340  0.71845429  0.48144445     0.12100
H1311       H  0.03631877  0.71824560  0.44670063     0.12600
H1312       H  0.07876245  0.73666821  0.45160569     0.14600
C1313       C  0.08325434  0.73893317  0.58490306    -0.05500
C1314       C  0.09555905  0.74568837  0.57753191    -0.05400
C1315       C  0.10798723  0.74708381  0.58867675    -0.23600
C1316       C  0.10851941  0.74153075  0.60738633     0.18700
C1317       C  0.09627741  0.73468655  0.61511502     0.15900
C1318       C  0.08360243  0.73360730  0.60391426    -0.18600
C1319       C  0.09710030  0.72881934  0.63372587    -0.20400
C1320       C  0.10993796  0.72960832  0.64439919    -0.13000
C1321       C  0.12210974  0.73650356  0.63682105     0.03700
C1322       C  0.12122121  0.74253512  0.61831576    -0.25100
H1323       H  0.09558853  0.74993612  0.56301623     0.08800
H1324       H  0.11728007  0.75233895  0.58252530     0.12400
H1325       H  0.07424558  0.72823675  0.60971009     0.12300
H1326       H  0.08787597  0.72349678  0.63994837     0.12100
H1327       H  0.11029161  0.72495875  0.65867531     0.12600
H1328       H  0.13055503  0.74771804  0.61216272     0.14600
C1329       C  0.24089851  0.52912694  0.08939443    -0.05500
C1330       C  0.22900233  0.52388601  0.09959500    -0.05400
C1331       C  0.22727976  0.50897179  0.10194680    -0.23600
C1332       C  0.23741615  0.49917277  0.09402909     0.18700
C1333       C  0.24992627  0.50453709  0.08500660     0.15900
C1334       C  0.25161299  0.51942860  0.08291713    -0.18600
C1335       C  0.26001700  0.49493922  0.07679052    -0.20400
C1336       C  0.25721149  0.48020958  0.07610555    -0.13000
C1337       C  0.24446322  0.47481232  0.08397411     0.03700
C1338       C  0.23481385  0.48421846  0.09362463    -0.25100
H1339       H  0.22056580  0.53122506  0.10450611     0.08800
H1340       H  0.21765311  0.50509624  0.10897973     0.12400
H1341       H  0.26078698  0.52346517  0.07497539     0.12300
H1342       H  0.26966426  0.49889964  0.06988726     0.12100
H1343       H  0.26464705  0.47307186  0.06848431     0.12600
H1344       H  0.22484209  0.48006348  0.09941644     0.14600
C1345       C  0.23810619  0.58220659  0.09838259    -0.05500
C1346       C  0.23152715  0.58123439  0.11662139    -0.05400
C1347       C  0.23042289  0.59331876  0.12882333    -0.23600
C1348       C  0.23611383  0.60659732  0.12319571     0.18700
C1349       C  0.24294281  0.60766361  0.10501540     0.15900
C1350       C  0.24374890  0.59554510  0.09265809    -0.18600
C1351       C  0.24903000  0.62079580  0.09959442    -0.20400
C1352       C  0.24851700  0.63269478  0.11212572    -0.13000
C1353       C  0.24171336  0.63182770  0.13022266     0.03700
C1354       C  0.23533793  0.61874159  0.13556659    -0.25100
H1355       H  0.22710310  0.57111345  0.12142802     0.08800
H1356       H  0.22523147  0.59223962  0.14273091     0.12400
H1357       H  0.24904249  0.59643007  0.07878096     0.12300
H1358       H  0.25434585  0.62182217  0.08575993     0.12100
H1359       H  0.25344874  0.64264507  0.10759879     0.12600
H1360       H  0.23023318  0.61786258  0.14956534     0.14600
C1361       C  0.23003306  0.53699840  0.90637813    -0.05500
C1362       C  0.24162212  0.52966223  0.89753527    -0.05400
C1363       C  0.24111974  0.51470400  0.89450600    -0.23600
C1364       C  0.22898685  0.50689083  0.90028610     0.18700
C1365       C  0.21690537  0.51442227  0.90804218     0.15900
C1366       C  0.21752960  0.52940968  0.91107699    -0.18600
C1367       C  0.20480443  0.50671550  0.91397590    -0.20400
C1368       C  0.20515470  0.49165765  0.91388045    -0.13000
C1369       C  0.21746819  0.48402257  0.90753985     0.03700
C1370       C  0.22913402  0.49166682  0.89988776    -0.25100
H1371       H  0.25140241  0.53536941  0.89405147     0.08800
H1372       H  0.25047322  0.50917094  0.88851140     0.12400
H1373       H  0.20862947  0.53505751  0.91808665     0.12300
H1374       H  0.19542767  0.51230208  0.91982661     0.12100
H1375       H  0.19615293  0.48593175  0.92004640     0.12600
H1376       H  0.23878612  0.48584047  0.89539465     0.14600
C1377       C  0.23699578  0.56908104  0.96172068    -0.05500
C1378       C  0.23203365  0.58155934  0.97142894    -0.05400
C1379       C  0.23280437  0.58256000  0.99163904    -0.23600
C1380       C  0.23875469  0.57117244  0.00242803     0.18700
C1381       C  0.24425987  0.55885601  0.99259900     0.15900
C1382       C  0.24328752  0.55787140  0.97244496    -0.18600
C1383       C  0.25037110  0.54750294  0.00307263    -0.20400
C1384       C  0.25047987  0.54800331  0.02315743    -0.13000
C1385       C  0.24450758  0.55986254  0.03331319     0.03700
C1386       C  0.23896664  0.57165217  0.02281146    -0.25100
H1387       H  0.22715249  0.59034419  0.96343639     0.08800
H1388       H  0.22856334  0.59212129  0.99882597     0.12400
H1389       H  0.24733497  0.54828325  0.96508646     0.12300
H1390       H  0.25477100  0.53806472  0.99574742     0.12100
H1391       H  0.25499334  0.53884906  0.03079182     0.12600
H1392       H  0.23430725  0.58083925  0.03041904     0.14600
C1393       C  0.23639581  0.58929054  0.89584885    -0.05500
C1394       C  0.24259738  0.60217662  0.90253512    -0.05400
C1395       C  0.24406289  0.61399670  0.89032120    -0.23600
C1396       C  0.23915755  0.61328259  0.87121383     0.18700
C1397       C  0.23267821  0.60050632  0.86434653     0.15900
C1398       C  0.23149781  0.58853847  0.87661560    -0.18600
C1399       C  0.22738596  0.59998969  0.84537338    -0.20400
C1400       C  0.22845758  0.61202085  0.83337581    -0.13000
C1401       C  0.23512667  0.62466215  0.83997306     0.03700
C1402       C  0.24053150  0.62517521  0.85891757    -0.25100
H1403       H  0.24649606  0.60309185  0.91721754     0.08800
H1404       H  0.24898502  0.62372975  0.89586197     0.12400
H1405       H  0.22657294  0.57874345  0.87127233     0.12300
H1406       H  0.22234361  0.59031594  0.83984936     0.12100
H1407       H  0.22429380  0.61136104  0.81880109     0.12600
H1408       H  0.24554966  0.63493870  0.86421368     0.14600
C1409       C  0.53298086  0.78488943  0.07720486    -0.05500
C1410       C  0.52892221  0.77402657  0.09004919    -0.05400
C1411       C  0.51429675  0.77132515  0.09352259    -0.23600
C1412       C  0.50353498  0.77958160  0.08435447     0.18700
C1413       C  0.50763246  0.79139394  0.07284416     0.15900
C1414       C  0.52230316  0.79391914  0.06927512    -0.18600
C1415       C  0.49699538  0.79979094  0.06381150    -0.20400
C1416       C  0.48257381  0.79568032  0.06453546    -0.13000
C1417       C  0.47847630  0.78322081  0.07443206     0.03700
C1418       C  0.48889933  0.77555969  0.08512795    -0.25100
H1419       H  0.53702359  0.76696572  0.09630609     0.08800
H1420       H  0.51141746  0.76233160  0.10256443     0.12400
H1421       H  0.52540255  0.80238166  0.05944896     0.12300
H1422       H  0.49992452  0.80895511  0.05510327     0.12100
H1423       H  0.47473380  0.80156701  0.05596845     0.12600
H1424       H  0.48587450  0.76575480  0.09242893     0.14600
C1425       C  0.63404176  0.77947887  0.12168672    -0.05500
C1426       C  0.63561224  0.77301684  0.10335176    -0.05400
C1427       C  0.62418846  0.77305712  0.09017412    -0.23600
C1428       C  0.61086466  0.77934532  0.09521444     0.18700
C1429       C  0.60918912  0.78590509  0.11360116     0.15900
C1430       C  0.62083656  0.78613976  0.12658375    -0.18600
C1431       C  0.59578350  0.79184955  0.11888603    -0.20400
C1432       C  0.58410691  0.79118536  0.10619683    -0.13000
C1433       C  0.58562848  0.78481698  0.08781158     0.03700
C1434       C  0.59913364  0.77900622  0.08232513    -0.25100
H1435       H  0.64571620  0.76790118  0.09917154     0.08800
H1436       H  0.62570671  0.76797378  0.07618111     0.12400
H1437       H  0.61944029  0.79100236  0.14073950     0.12300
H1438       H  0.59428265  0.79689059  0.13290793     0.12100
H1439       H  0.57387248  0.79585945  0.11071715     0.12600
H1440       H  0.60043004  0.77399051  0.06824182     0.14600
C1441       C  0.52768997  0.77297135  0.89179656    -0.05500
C1442       C  0.52356382  0.75961142  0.88400088    -0.05400
C1443       C  0.50888393  0.75635055  0.88173079    -0.23600
C1444       C  0.49813007  0.76642750  0.88720770     0.18700
C1445       C  0.50230594  0.78028892  0.89360906     0.15900
C1446       C  0.51699545  0.78344451  0.89581992    -0.18600
C1447       C  0.49173765  0.79043659  0.89914792    -0.20400
C1448       C  0.47723766  0.78658764  0.89976772    -0.13000
C1449       C  0.47297326  0.77260127  0.89469107     0.03700
C1450       C  0.48340242  0.76263651  0.88778855    -0.25100
H1451       H  0.53161773  0.75131779  0.88107302     0.08800
H1452       H  0.50594787  0.74569196  0.87668202     0.12400
H1453       H  0.52010694  0.79373695  0.90199789     0.12300
H1454       H  0.49475970  0.80111336  0.90404108     0.12100
H1455       H  0.46940172  0.79428605  0.90544703     0.12600
H1456       H  0.48021749  0.75171292  0.88427827     0.14600
C1457       C  0.55627352  0.78303867  0.94904677    -0.05500
C1458       C  0.54355208  0.78816149  0.95798731    -0.05400
C1459       C  0.54280846  0.79003798  0.97791370    -0.23600
C1460       C  0.55476363  0.78682615  0.98945659     0.18700
C1461       C  0.56782690  0.78214784  0.98079849     0.15900
C1462       C  0.56855208  0.78035325  0.96055924    -0.18600
C1463       C  0.57974774  0.77903128  0.99264568    -0.20400
C1464       C  0.57858174  0.78019855  0.01281556    -0.13000
C1465       C  0.56546058  0.78446194  0.02149902     0.03700
C1466       C  0.55368328  0.78795827  0.00957780    -0.25100
H1467       H  0.53397603  0.79051118  0.94958627     0.08800
H1468       H  0.53275025  0.79374481  0.98433755     0.12400
H1469       H  0.57844370  0.77641482  0.95391484     0.12300
H1470       H  0.58989407  0.77547202  0.98634297     0.12100
H1471       H  0.58784636  0.77745191  0.02161343     0.12600
H1472       H  0.54351733  0.79141209  0.01595153     0.14600
C1473       C  0.58146009  0.77147192  0.88766942    -0.05500
C1474       C  0.59415552  0.76752423  0.89753250    -0.05400
C1475       C  0.60725295  0.76579764  0.88770589    -0.23600
C1476       C  0.60803985  0.76825637  0.86780718     0.18700
C1477       C  0.59542578  0.77241863  0.85770112     0.15900
C1478       C  0.58217608  0.77378414  0.86761949    -0.18600
C1479       C  0.59635233  0.77537819  0.83790963    -0.20400
C1480       C  0.60962737  0.77435686  0.82830781    -0.13000
C1481       C  0.62217529  0.77002206  0.83815921     0.03700
C1482       C  0.62126908  0.76683497  0.85791955    -0.25100
H1483       H  0.59395814  0.76568234  0.91294808     0.08800
H1484       H  0.61680391  0.76269637  0.89572848     0.12400
H1485       H  0.57254771  0.77703559  0.85985879     0.12300
H1486       H  0.58684797  0.77863696  0.82990045     0.12100
H1487       H  0.61005776  0.77679335  0.81305723     0.12600
H1488       H  0.63091899  0.76364525  0.86568434     0.14600
C1489       C  0.73575089  0.88952896  0.33713710    -0.05500
C1490       C  0.72701118  0.90102606  0.33067572    -0.05400
C1491       C  0.72571551  0.91383848  0.34145032    -0.23600
C1492       C  0.73299642  0.91539618  0.35907286     0.18700
C1493       C  0.74182168  0.90391268  0.36571055     0.15900
C1494       C  0.74322967  0.89114987  0.35468054    -0.18600
C1495       C  0.74891089  0.90527572  0.38345865    -0.20400
C1496       C  0.74696896  0.91767867  0.39478597    -0.13000
C1497       C  0.73808968  0.92913948  0.38854456     0.03700
C1498       C  0.73134278  0.92805191  0.37039987    -0.25100
H1499       H  0.72125976  0.90020820  0.31713748     0.08800
H1500       H  0.71890032  0.92248643  0.33606496     0.12400
H1501       H  0.74992320  0.88238215  0.35999268     0.12300
H1502       H  0.75574549  0.89661805  0.38878406     0.12100
H1503       H  0.75235655  0.91825485  0.40863157     0.12600
H1504       H  0.72436007  0.93674064  0.36550145     0.14600
C1505       C  0.73336953  0.94732843  0.45521291    -0.05500
C1506       C  0.73229761  0.93343188  0.46309609    -0.05400
C1507       C  0.73282175  0.93144295  0.48317426    -0.23600
C1508       C  0.73459187  0.94330260  0.49569872     0.18700
C1509       C  0.73597907  0.95721243  0.48772435     0.15900
C1510       C  0.73528346  0.95912420  0.46773462    -0.18600
C1511       C  0.73793638  0.96913136  0.49982951    -0.20400
C1512       C  0.73808911  0.96745064  0.51972833    -0.13000
C1513       C  0.73620489  0.95382035  0.52815469     0.03700
C1514       C  0.73475027  0.94164491  0.51598020    -0.25100
H1515       H  0.73086294  0.92413030  0.45376523     0.08800
H1516       H  0.73177323  0.92066516  0.48888991     0.12400
H1517       H  0.73632637  0.96988925  0.46193425     0.12300
H1518       H  0.73914580  0.97983789  0.49391683     0.12100
H1519       H  0.73942152  0.97702567  0.52858155     0.12600
H1520       H  0.73326728  0.93108183  0.52220779     0.14600
C1521       C  0.73035602  0.88615517  0.63868312    -0.05500
C1522       C  0.72140747  0.89750198  0.64531947    -0.05400
C1523       C  0.72045887  0.91050491  0.63520641    -0.23600
C1524       C  0.72827577  0.91235772  0.61806225     0.18700
C1525       C  0.73707392  0.90093049  0.61101203     0.15900
C1526       C  0.73816702  0.88798464  0.62143331    -0.18600
C1527       C  0.74459498  0.90262932  0.59360761    -0.20400
C1528       C  0.74340656  0.91550933  0.58327768    -0.13000
C1529       C  0.73488263  0.92706735  0.59027443     0.03700
C1530       C  0.72737598  0.92539842  0.60780116    -0.25100
H1531       H  0.71534348  0.89645028  0.65858212     0.08800
H1532       H  0.71360806  0.91911304  0.64080346     0.12400
H1533       H  0.74496658  0.87928847  0.61597351     0.12300
H1534       H  0.75135187  0.89397522  0.58793467     0.12100
H1535       H  0.74932343  0.91648816  0.56987437     0.12600
H1536       H  0.72063454  0.93413779  0.61328575     0.14600
C1537       C  0.97547495  0.73022165  0.39288451    -0.05500
C1538       C  0.98015846  0.71626188  0.39765584    -0.05400
C1539       C  0.99468544  0.71233087  0.39590793    -0.23600
C1540       C  0.00477013  0.72244121  0.38970333     0.18700
C1541       C  0.99996746  0.73610919  0.38320042     0.15900
C1542       C  0.98525277  0.73988891  0.38470631    -0.18600
C1543       C  0.01014853  0.74622584  0.37714928    -0.20400
C1544       C  0.02492779  0.74336881  0.37935139    -0.13000
C1545       C  0.02966834  0.73036947  0.38754675     0.03700
C1546       C  0.01959686  0.71965703  0.39176436    -0.25100
H1547       H  0.97276273  0.70878746  0.40423608     0.08800
H1548       H  0.99817187  0.70177796  0.40079780     0.12400
H1549       H  0.98169396  0.75077568  0.38139942     0.12300
H1550       H  0.00668685  0.75671190  0.37199566     0.12100
H1551       H  0.03256699  0.75179183  0.37624293     0.12600
H1552       H  0.02325856  0.70966083  0.39827166     0.14600
C1553       C  0.88271850  0.74039825  0.34085982    -0.05500
C1554       C  0.89450901  0.73283449  0.33278805    -0.05400
C1555       C  0.90754396  0.73165017  0.34280610    -0.23600
C1556       C  0.90894649  0.73777685  0.36126720     0.18700
C1557       C  0.89704701  0.74512156  0.36973199     0.15900
C1558       C  0.88406456  0.74654587  0.35938328    -0.18600
C1559       C  0.89834813  0.75090379  0.38839959    -0.20400
C1560       C  0.91133813  0.74954540  0.39851072    -0.13000
C1561       C  0.92336247  0.74251726  0.39010115     0.03700
C1562       C  0.92203505  0.73663929  0.37139851    -0.25100
H1563       H  0.89375058  0.72808885  0.31849678     0.08800
H1564       H  0.91652490  0.72593934  0.33610967     0.12400
H1565       H  0.87497196  0.75226402  0.36580986     0.12300
H1566       H  0.88932248  0.75647902  0.39518866     0.12100
H1567       H  0.91199199  0.75415570  0.41289085     0.12600
H1568       H  0.93112286  0.73105489  0.36476376     0.14600
C1569       C  0.97606627  0.72912853  0.57523896    -0.05500
C1570       C  0.98168939  0.71667060  0.56618083    -0.05400
C1571       C  0.99655364  0.71436977  0.56472137    -0.23600
C1572       C  0.00611283  0.72459992  0.57212532     0.18700
C1573       C  0.00064711  0.73663268  0.58263494     0.15900
C1574       C  0.98557974  0.73879122  0.58425178    -0.18600
C1575       C  0.01035492  0.74678733  0.59008486    -0.20400
C1576       C  0.02517960  0.74545319  0.58622106    -0.13000
C1577       C  0.03050479  0.73406117  0.57466314     0.03700
C1578       C  0.02094815  0.72346228  0.56809676    -0.25100
H1579       H  0.97453662  0.70922785  0.55892093     0.08800
H1580       H  0.00055105  0.70502906  0.55677917     0.12400
H1581       H  0.98133376  0.74859282  0.59086959     0.12300
H1582       H  0.00643241  0.75605383  0.59823885     0.12100
H1583       H  0.03237589  0.75377681  0.59131524     0.12600
H1584       H  0.02500655  0.71464197  0.55917601     0.14600
C1585       C  0.95066653  0.74544863  0.45135510    -0.05500
C1586       C  0.96408309  0.74796258  0.46014078    -0.05400
C1587       C  0.96543011  0.74817024  0.48014674    -0.23600
C1588       C  0.95339147  0.74577830  0.49181210     0.18700
C1589       C  0.93967749  0.74392171  0.48331326     0.15900
C1590       C  0.93835630  0.74390695  0.46305839    -0.18600
C1591       C  0.92767809  0.74159553  0.49524880    -0.20400
C1592       C  0.92937779  0.74065829  0.51531777    -0.13000
C1593       C  0.94310499  0.74193706  0.52370492     0.03700
C1594       C  0.95499822  0.74477962  0.51182759    -0.25100
H1595       H  0.97369542  0.74939457  0.45149827     0.08800
H1596       H  0.97597804  0.74976539  0.48647391     0.12400
H1597       H  0.92795751  0.74196953  0.45647138     0.12300
H1598       H  0.91706336  0.74020081  0.48905024     0.12100
H1599       H  0.92004555  0.73850217  0.52420707     0.12600
H1600       H  0.96561102  0.74600542  0.51814094     0.14600
C1601       C  0.92526714  0.74398061  0.59065593    -0.05500
C1602       C  0.91392119  0.75318048  0.58482173    -0.05400
C1603       C  0.90199852  0.75574032  0.59669811    -0.23600
C1604       C  0.90100191  0.74901693  0.61464187     0.18700
C1605       C  0.91233066  0.73982917  0.62088345     0.15900
C1606       C  0.92451328  0.73750054  0.60895190    -0.18600
C1607       C  0.91106907  0.73291444  0.63874269    -0.20400
C1608       C  0.89865736  0.73490873  0.65008735    -0.13000
C1609       C  0.88732486  0.74401526  0.64395005     0.03700
C1610       C  0.88870472  0.75114771  0.62623418    -0.25100
H1611       H  0.91421549  0.75841353  0.57091459     0.08800
H1612       H  0.89342630  0.76282438  0.59168052     0.12400
H1613       H  0.93311253  0.73030160  0.61359483     0.12300
H1614       H  0.91960262  0.72582098  0.64384097     0.12100
H1615       H  0.89797709  0.72936054  0.66373073     0.12600
H1616       H  0.88003050  0.75806906  0.62114529     0.14600
C1617       C  0.77482301  0.62906412  0.13731683    -0.05500
C1618       C  0.78048173  0.61719562  0.14743295    -0.05400
C1619       C  0.78162516  0.60359196  0.13862936    -0.23600
C1620       C  0.77739184  0.60163330  0.11936700     0.18700
C1621       C  0.77186042  0.61354225  0.10896155     0.15900
C1622       C  0.77041151  0.62712713  0.11806893    -0.18600
C1623       C  0.76801431  0.61169136  0.08955361    -0.20400
C1624       C  0.76969888  0.59822991  0.08051092    -0.13000
C1625       C  0.77506317  0.58623044  0.09070495     0.03700
C1626       C  0.77878502  0.58802694  0.11027431    -0.25100
H1627       H  0.78383010  0.61837918  0.16232809     0.08800
H1628       H  0.78591538  0.59463280  0.14684944     0.12400
H1629       H  0.76615327  0.63623320  0.11009227     0.12300
H1630       H  0.76382754  0.62068312  0.08130287     0.12100
H1631       H  0.76673440  0.59721939  0.06544511     0.12600
H1632       H  0.78308966  0.57896287  0.11828587     0.14600
C1633       C  0.77854531  0.56707485  0.95732747    -0.05500
C1634       C  0.77612938  0.58054663  0.96634019    -0.05400
C1635       C  0.77616886  0.58184098  0.98652009    -0.23600
C1636       C  0.77870496  0.56969841  0.99807877     0.18700
C1637       C  0.78138499  0.55618113  0.98911893     0.15900
C1638       C  0.78128508  0.55495843  0.96893133    -0.18600
C1639       C  0.78400427  0.54401730  0.00047008    -0.20400
C1640       C  0.78380920  0.54514852  0.02053807    -0.13000
C1641       C  0.78098164  0.55846988  0.02980167     0.03700
C1642       C  0.77851134  0.57078010  0.01838956    -0.25100
H1643       H  0.77397291  0.59006588  0.95780503     0.08800
H1644       H  0.77411551  0.59231273  0.99307602     0.12400
H1645       H  0.78328049  0.54449908  0.96228506     0.12300
H1646       H  0.78611885  0.53358184  0.99382901     0.12100
H1647       H  0.78580699  0.53546115  0.02879820     0.12600
H1648       H  0.77632383  0.58112543  0.02524045     0.14600
C1649       C  0.77520468  0.58849352  0.89255217    -0.05500
C1650       C  0.76697818  0.60026655  0.89954987    -0.05400
C1651       C  0.76570824  0.61299592  0.88900399    -0.23600
C1652       C  0.77290364  0.61441093  0.87135154     0.18700
C1653       C  0.78139998  0.60277903  0.86417254     0.15900
C1654       C  0.78231743  0.58976739  0.87467015    -0.18600
C1655       C  0.78892838  0.60449046  0.84675458    -0.20400
C1656       C  0.78797807  0.61749746  0.83655674    -0.13000
C1657       C  0.77931420  0.62902527  0.84338708     0.03700
C1658       C  0.77180833  0.62732794  0.86087946    -0.25100
H1659       H  0.76139069  0.59957672  0.91323899     0.08800
H1660       H  0.75918886  0.62180942  0.89478114     0.12400
H1661       H  0.78885134  0.58083899  0.86924512     0.12300
H1662       H  0.79558395  0.59576960  0.84101508     0.12100
H1663       H  0.79383690  0.61842035  0.82312021     0.12600
H1664       H  0.76524493  0.63614265  0.86655163     0.14600
C1665       C  0.97607453  0.28372833  0.40503295    -0.05500
C1666       C  0.98084385  0.27108841  0.39558450    -0.05400
C1667       C  0.99565720  0.26840259  0.39286845    -0.23600
C1668       C  0.00588778  0.27834868  0.39956193     0.18700
C1669       C  0.00103504  0.29167249  0.40743846     0.15900
C1670       C  0.98620173  0.29425702  0.41010060    -0.18600
C1671       C  0.01110545  0.30168077  0.41415269    -0.20400
C1672       C  0.02573882  0.29799490  0.41483772    -0.13000
C1673       C  0.03061321  0.28433965  0.40863898     0.03700
C1674       C  0.02073934  0.27475501  0.40015366    -0.25100
H1675       H  0.97322026  0.26277298  0.39177313     0.08800
H1676       H  0.99912050  0.25818032  0.38663923     0.12400
H1677       H  0.98257973  0.30398789  0.41752880     0.12300
H1678       H  0.00757420  0.31197249  0.42011254     0.12100
H1679       H  0.03314274  0.30539539  0.42170485     0.12600
H1680       H  0.02438302  0.26407143  0.39575550     0.14600
C1681       C  0.88177991  0.28359509  0.35231254    -0.05500
C1682       C  0.89245796  0.29321313  0.34623153    -0.05400
C1683       C  0.90528468  0.29477987  0.35669508    -0.23600
C1684       C  0.90763131  0.28692723  0.37366488     0.18700
C1685       C  0.89677546  0.27762562  0.38034580     0.15900
C1686       C  0.88401487  0.27591288  0.36956119    -0.18600
C1687       C  0.89888458  0.27017497  0.39770370    -0.20400
C1688       C  0.91163371  0.27187269  0.40827995    -0.13000
C1689       C  0.92267922  0.28074581  0.40148540     0.03700
C1690       C  0.92061452  0.28823500  0.38408689    -0.25100
H1691       H  0.89109055  0.29926845  0.33305309     0.08800
H1692       H  0.91340602  0.30207639  0.35144288     0.12400
H1693       H  0.87581418  0.26865013  0.37466766     0.12300
H1694       H  0.89065725  0.26307333  0.40313623     0.12100
H1695       H  0.91297983  0.26604189  0.42165966     0.12600
H1696       H  0.92898450  0.29528285  0.37889288     0.14600
C1697       C  0.97382248  0.28226446  0.59109941    -0.05500
C1698       C  0.97968922  0.27240399  0.60434583    -0.05400
C1699       C  0.99468241  0.27163857  0.60742445    -0.23600
C1700       C  0.00403209  0.28080658  0.59740458     0.18700
C1701       C  0.99802693  0.29140840  0.58512048     0.15900
C1702       C  0.98306389  0.29204904  0.58207366    -0.18600
C1703       C  0.00712325  0.30067042  0.57508296    -0.20400
C1704       C  0.02204229  0.29880508  0.57601877    -0.13000
C1705       C  0.02824295  0.28777461  0.58714117     0.03700
C1706       C  0.01921621  0.27906010  0.59842313    -0.25100
H1707       H  0.97279067  0.26472165  0.61142306     0.08800
H1708       H  0.99899585  0.26349595  0.61702065     0.12400
H1709       H  0.97864353  0.29976094  0.57191296     0.12300
H1710       H  0.00269103  0.30890215  0.56570814     0.12100
H1711       H  0.02879482  0.30550540  0.56709949     0.12600
H1712       H  0.02389849  0.27034263  0.60675492     0.14600
C1713       C  0.94015611  0.28277502  0.53672374    -0.05500
C1714       C  0.92678459  0.27987255  0.52796362    -0.05400
C1715       C  0.92518490  0.28060549  0.50780625    -0.23600
C1716       C  0.93693614  0.28422275  0.49601844     0.18700
C1717       C  0.95023607  0.28756383  0.50483163     0.15900
C1718       C  0.95173197  0.28686937  0.52492161    -0.18600
C1719       C  0.96203827  0.29126441  0.49343557    -0.20400
C1720       C  0.96092319  0.29116097  0.47342272    -0.13000
C1721       C  0.94797770  0.28733977  0.46416565     0.03700
C1722       C  0.93583001  0.28420072  0.47564552    -0.25100
H1723       H  0.91762442  0.27678956  0.53664100     0.08800
H1724       H  0.91484251  0.27809196  0.50143062     0.12400
H1725       H  0.96210035  0.28930334  0.53130403     0.12300
H1726       H  0.97227348  0.29397053  0.49999604     0.12100
H1727       H  0.97043309  0.29384656  0.46517797     0.12600
H1728       H  0.92575410  0.28129914  0.46881184     0.14600
C1729       C  0.88270945  0.27575219  0.65478905    -0.05500
C1730       C  0.89350347  0.28547701  0.66032599    -0.05400
C1731       C  0.90596043  0.28709466  0.64912529    -0.23600
C1732       C  0.90784565  0.27918177  0.63194063     0.18700
C1733       C  0.89705756  0.26943375  0.62607774     0.15900
C1734       C  0.88467367  0.26765954  0.63761214    -0.18600
C1735       C  0.89872740  0.26183732  0.60858469    -0.20400
C1736       C  0.91077013  0.26412564  0.59682910    -0.13000
C1737       C  0.92160387  0.27373145  0.60255155     0.03700
C1738       C  0.92017226  0.28107238  0.62032529    -0.25100
H1739       H  0.89242458  0.29175704  0.67348881     0.08800
H1740       H  0.91408215  0.29465695  0.65384317     0.12400
H1741       H  0.87644281  0.26020560  0.63294421     0.12300
H1742       H  0.89057923  0.25432344  0.60380518     0.12100
H1743       H  0.91164839  0.25835217  0.58321625     0.12600
H1744       H  0.92837727  0.28865322  0.62474428     0.14600
C1745       C  0.78666686  0.47840661  0.08806282    -0.05500
C1746       C  0.79933425  0.48377618  0.07987178    -0.05400
C1747       C  0.80205483  0.49855129  0.08002598    -0.23600
C1748       C  0.79197174  0.50825584  0.08805384     0.18700
C1749       C  0.77972662  0.50295344  0.09775115     0.15900
C1750       C  0.77719742  0.48795617  0.09784574    -0.18600
C1751       C  0.76959665  0.51283688  0.10551071    -0.20400
C1752       C  0.77085786  0.52767810  0.10198278    -0.13000
C1753       C  0.78230259  0.53279679  0.09077743     0.03700
C1754       C  0.79322882  0.52311094  0.08482502    -0.25100
H1755       H  0.80659458  0.47661095  0.07200000     0.08800
H1756       H  0.81151508  0.50244987  0.07260982     0.12400
H1757       H  0.76722870  0.48390161  0.10377768     0.12300
H1758       H  0.76019357  0.50902293  0.11312547     0.12100
H1759       H  0.76225926  0.53495285  0.10654291     0.12600
H1760       H  0.80205122  0.52701407  0.07608611     0.14600
C1761       C  0.76714016  0.37954065  0.13396358    -0.05500
C1762       C  0.75731727  0.38046246  0.11849023    -0.05400
C1763       C  0.75760994  0.39202421  0.10558370    -0.23600
C1764       C  0.76767315  0.40308626  0.10784444     0.18700
C1765       C  0.77761038  0.40237075  0.12328623     0.15900
C1766       C  0.77738322  0.39058310  0.13610714    -0.18600
C1767       C  0.78747947  0.41358788  0.12580889    -0.20400
C1768       C  0.78737900  0.42544644  0.11338662    -0.13000
C1769       C  0.77761254  0.42630187  0.09787929     0.03700
C1770       C  0.76784561  0.41492457  0.09509426    -0.25100
H1771       H  0.74936748  0.37217968  0.11619049     0.08800
H1772       H  0.74987456  0.39235065  0.09388679     0.12400
H1773       H  0.78498431  0.39020737  0.14794572     0.12300
H1774       H  0.79518557  0.41328191  0.13753979     0.12100
H1775       H  0.79506463  0.43397167  0.11587355     0.12600
H1776       H  0.76015314  0.41546095  0.08335287     0.14600
C1777       C  0.76294500  0.48195428  0.90925921    -0.05500
C1778       C  0.75142668  0.48974127  0.91762412    -0.05400
C1779       C  0.75073110  0.50476095  0.91653912    -0.23600
C1780       C  0.76176774  0.51235478  0.90745195     0.18700
C1781       C  0.77306074  0.50469469  0.89802571     0.15900
C1782       C  0.77346375  0.48943394  0.89871496    -0.18600
C1783       C  0.78423914  0.51251002  0.88935387    -0.20400
C1784       C  0.78471567  0.52763038  0.89122436    -0.13000
C1785       C  0.77393129  0.53514573  0.90155006     0.03700
C1786       C  0.76222761  0.52745914  0.90897506    -0.25100
H1787       H  0.74325183  0.48418873  0.92581303     0.08800
H1788       H  0.74197944  0.51047133  0.92375097     0.12400
H1789       H  0.78249010  0.48351786  0.89246295     0.12300
H1790       H  0.79300580  0.50688840  0.88206589     0.12100
H1791       H  0.79396468  0.53332771  0.88571986     0.12600
H1792       H  0.75399091  0.53319229  0.91720857     0.14600
C1793       C  0.76747693  0.44638210  0.96094436    -0.05500
C1794       C  0.77393464  0.43354687  0.96766484    -0.05400
C1795       C  0.77557153  0.43109362  0.98752741    -0.23600
C1796       C  0.77068115  0.44137402  0.00111561     0.18700
C1797       C  0.76377030  0.45408295  0.99444505     0.09500
C1798       C  0.76222910  0.45649117  0.97454527    -0.18600
C1799       C  0.75885019  0.46443610  0.00776385    -0.20400
C1800       C  0.76130351  0.46259279  0.02743516    -0.13000
C1801       C  0.76861398  0.45030408  0.03439293     0.03700
C1802       C  0.77297556  0.43947449  0.02115109    -0.25100
H1803       H  0.77809172  0.42555875  0.95754882     0.08800
H1804       H  0.78089066  0.42126518  0.99224031     0.12400
H1805       H  0.75710351  0.46638257  0.96965358     0.12300
H1806       H  0.75346287  0.47420019  0.00293138     0.12100
H1807       H  0.75781058  0.47107363  0.03728985     0.12600
H1808       H  0.77879069  0.43004580  0.02628358     0.14600
C1809       C  0.76769824  0.42958565  0.89324465    -0.05500
C1810       C  0.77433168  0.43050193  0.87504589    -0.05400
C1811       C  0.77457310  0.41854242  0.86239180    -0.23600
C1812       C  0.76790303  0.40556372  0.86756909     0.18700
C1813       C  0.76094566  0.40475565  0.88567186     0.15900
C1814       C  0.76103781  0.41662227  0.89837455    -0.18600
C1815       C  0.75393211  0.39208524  0.89087901    -0.20400
C1816       C  0.75378051  0.38025208  0.87833845    -0.13000
C1817       C  0.76075782  0.38068144  0.86032577     0.03700
C1818       C  0.76792690  0.39342549  0.85503882    -0.25100
H1819       H  0.77956056  0.44036440  0.87077236     0.08800
H1820       H  0.77992373  0.41945775  0.84856996     0.12400
H1821       H  0.75571102  0.41582030  0.91224683     0.12300
H1822       H  0.74852598  0.39131764  0.90468866     0.12100
H1823       H  0.74832809  0.37062350  0.88298737     0.12600
H1824       H  0.77325282  0.39398554  0.84115645     0.14600
C1825       C  0.72813403  0.98140542  0.40234352    -0.05500
C1826       C  0.73817237  0.98826673  0.39043039    -0.05400
C1827       C  0.73832658  0.00341500  0.38920041    -0.23600
C1828       C  0.72844160  0.01191830  0.39990144     0.18700
C1829       C  0.71775021  0.00496653  0.41089690     0.15900
C1830       C  0.71762671  0.98984839  0.41193343    -0.18600
C1831       C  0.70791518  0.01321917  0.42179681    -0.20400
C1832       C  0.70926235  0.02816219  0.42296059    -0.13000
C1833       C  0.72028222  0.03524693  0.41301232     0.03700
C1834       C  0.72955262  0.02713213  0.40083022    -0.25100
H1835       H  0.74649543  0.98198969  0.38313151     0.08800
H1836       H  0.74659535  0.00847617  0.38064465     0.12400
H1837       H  0.70989208  0.98464441  0.42123688     0.12300
H1838       H  0.69960929  0.00806257  0.43019358     0.12100
H1839       H  0.70199138  0.03419508  0.43235461     0.12600
H1840       H  0.73818752  0.03248071  0.39328774     0.14600
C1841       C  0.72997773  0.08618087  0.39556418    -0.05500
C1842       C  0.72417850  0.08451539  0.37691760    -0.05400
C1843       C  0.72515672  0.09558187  0.36331265    -0.23600
C1844       C  0.73220423  0.10847944  0.36793269     0.18700
C1845       C  0.73850428  0.11007123  0.38640056     0.15900
C1846       C  0.73718541  0.09904400  0.40014391    -0.18600
C1847       C  0.74600664  0.12270237  0.39086570    -0.20400
C1848       C  0.74715182  0.13370968  0.37729948    -0.13000
C1849       C  0.74056922  0.13251918  0.35910302     0.03700
C1850       C  0.73306591  0.11981271  0.35447999    -0.25100
H1851       H  0.71853837  0.07475941  0.37297419     0.08800
H1852       H  0.72035545  0.09406604  0.34921120     0.12400
H1853       H  0.74184314  0.10044695  0.41436260     0.12300
H1854       H  0.75098595  0.12408831  0.40488024     0.12100
H1855       H  0.75293251  0.14337321  0.38126633     0.12600
H1856       H  0.72809330  0.11868604  0.34041323     0.14600
C1857       C  0.72712848  0.03374741  0.59322739    -0.05500
C1858       C  0.73873240  0.02813963  0.60394001    -0.05400
C1859       C  0.74036753  0.01315956  0.60627811    -0.23600
C1860       C  0.73039536  0.00363417  0.59793977     0.18700
C1861       C  0.71797639  0.00938380  0.58881948     0.15900
C1862       C  0.71640731  0.02434056  0.58663694    -0.18600
C1863       C  0.70793833  0.00008524  0.58043546    -0.20400
C1864       C  0.71084585  0.98532311  0.57934407    -0.13000
C1865       C  0.72373965  0.97955039  0.58674030     0.03700
C1866       C  0.73319393  0.98862375  0.59693983    -0.25100
H1867       H  0.74711938  0.03521414  0.60913634     0.08800
H1868       H  0.74987376  0.00901329  0.61353454     0.12400
H1869       H  0.70737275  0.02861602  0.57845429     0.12300
H1870       H  0.69833660  0.00432462  0.57348877     0.12100
H1871       H  0.70358039  0.97852883  0.57118290     0.12600
H1872       H  0.74331980  0.98428044  0.60228591     0.14600
C1873       C  0.72222038  0.06441061  0.53689940    -0.05500
C1874       C  0.71412100  0.05339556  0.52820370    -0.05400
C1875       C  0.71235733  0.05272335  0.50829912    -0.23600
C1876       C  0.71869668  0.06302752  0.49649482     0.18700
C1877       C  0.72630815  0.07462259  0.50483503     0.15900
C1878       C  0.72794779  0.07534096  0.52513861    -0.18600
C1879       C  0.73252231  0.08489141  0.49258136    -0.20400
C1880       C  0.73175927  0.08323765  0.47237458    -0.13000
C1881       C  0.72478843  0.07128128  0.46411592     0.03700
C1882       C  0.71791971  0.06151296  0.47641390    -0.25100
H1883       H  0.70935903  0.04498553  0.53680792     0.08800
H1884       H  0.70636615  0.04385846  0.50209205     0.12400
H1885       H  0.73418431  0.08392100  0.53161539     0.12300
H1886       H  0.73831005  0.09395358  0.49860092     0.12100
H1887       H  0.73706283  0.09099384  0.46326476     0.12600
H1888       H  0.71224654  0.05237367  0.47036235     0.14600
C1889       C  0.73553813  0.08642107  0.59991031    -0.05500
C1890       C  0.74024243  0.09913992  0.59107715    -0.05400
C1891       C  0.74280925  0.11158791  0.60201618    -0.23600
C1892       C  0.74048928  0.11167392  0.62200572     0.18700
C1893       C  0.73571192  0.09898831  0.63110046     0.15900
C1894       C  0.73348159  0.08639428  0.62006160    -0.18600
C1895       C  0.73293327  0.09922827  0.65101174    -0.20400
C1896       C  0.73464176  0.11195784  0.66171775    -0.13000
C1897       C  0.73951508  0.12456982  0.65283399     0.03700
C1898       C  0.74259880  0.12430642  0.63298199    -0.25100
H1899       H  0.74193823  0.09948677  0.57562339     0.08800
H1900       H  0.74640491  0.12121985  0.59478151     0.12400
H1901       H  0.72970154  0.07673778  0.62707670     0.12300
H1902       H  0.72923088  0.08963899  0.65824938     0.12100
H1903       H  0.73227377  0.11192161  0.67702690     0.12600
H1904       H  0.74619698  0.13404682  0.62599276     0.14600
C1905       C  0.52899641  0.22361464  0.09580538    -0.05500
C1906       C  0.52419904  0.23496955  0.10782999    -0.05400
C1907       C  0.50938592  0.23744340  0.11077864    -0.23600
C1908       C  0.49917044  0.22848911  0.10188383     0.18700
C1909       C  0.50404693  0.21644452  0.09089513     0.15900
C1910       C  0.51886763  0.21413288  0.08789082    -0.18600
C1911       C  0.49402166  0.20739809  0.08200554    -0.20400
C1912       C  0.47936643  0.21089230  0.08258760    -0.13000
C1913       C  0.47439605  0.22335952  0.09225498     0.03700
C1914       C  0.48426775  0.23184952  0.10262605    -0.25100
H1915       H  0.53186425  0.24242450  0.11401538     0.08800
H1916       H  0.50592542  0.24667714  0.11934478     0.12400
H1917       H  0.52252253  0.20530911  0.07867895     0.12300
H1918       H  0.49756908  0.19807035  0.07367871     0.12100
H1919       H  0.47192759  0.20431223  0.07439491     0.12600
H1920       H  0.48053576  0.24162929  0.10980953     0.14600
C1921       C  0.58129318  0.22518046  0.10961636    -0.05500
C1922       C  0.57915726  0.22204524  0.12923590    -0.05400
C1923       C  0.59060830  0.22263428  0.14234076    -0.23600
C1924       C  0.60439373  0.22659963  0.13615558     0.18700
C1925       C  0.60661901  0.23006086  0.11654138     0.15900
C1926       C  0.59512367  0.22917082  0.10338143    -0.18600
C1927       C  0.62027927  0.23450545  0.11045762    -0.20400
C1928       C  0.63155772  0.23571966  0.12372151    -0.13000
C1929       C  0.62950209  0.23216768  0.14318762     0.03700
C1930       C  0.61592676  0.22740860  0.14929375    -0.25100
H1931       H  0.56864767  0.21888861  0.13443569     0.08800
H1932       H  0.58866337  0.22004178  0.15732670     0.12400
H1933       H  0.59691460  0.23175535  0.08834963     0.12300
H1934       H  0.62218305  0.23725409  0.09551321     0.12100
H1935       H  0.64194824  0.23942436  0.11876025     0.12600
H1936       H  0.61421665  0.22487564  0.16436001     0.14600
C1937       C  0.52876250  0.21891333  0.91039329    -0.05500
C1938       C  0.52412686  0.23148858  0.90097927    -0.05400
C1939       C  0.50939444  0.23397495  0.89755927    -0.23600
C1940       C  0.49912837  0.22389007  0.90350180     0.18700
C1941       C  0.50389895  0.21062177  0.91133520     0.15900
C1942       C  0.51866836  0.20822739  0.91469083    -0.18600
C1943       C  0.49375060  0.20052985  0.91739715    -0.20400
C1944       C  0.47908458  0.20414796  0.91765284    -0.13000
C1945       C  0.47428842  0.21777507  0.91152609     0.03700
C1946       C  0.48426706  0.22734882  0.90349739    -0.25100
H1947       H  0.53174745  0.23989528  0.89771949     0.08800
H1948       H  0.50598037  0.24416254  0.89140085     0.12400
H1949       H  0.52221567  0.19853016  0.92204652     0.12300
H1950       H  0.49722066  0.19027385  0.92330805     0.12100
H1951       H  0.47158525  0.19676239  0.92420237     0.12600
H1952       H  0.48066515  0.23801994  0.89920541     0.14600
C1953       C  0.55641328  0.21520199  0.96991764    -0.05500
C1954       C  0.54423202  0.20921945  0.97879024    -0.05400
C1955       C  0.54320388  0.20837136  0.99879424    -0.23600
C1956       C  0.55429141  0.21357984  0.01049718     0.18700
C1957       C  0.56682307  0.21928449  0.00196014     0.15900
C1958       C  0.56786738  0.21999691  0.98164424    -0.18600
C1959       C  0.57786417  0.22445882  0.01396849    -0.20400
C1960       C  0.57626050  0.22438597  0.03412814    -0.13000
C1961       C  0.56356242  0.21920563  0.04262473     0.03700
C1962       C  0.55278578  0.21351930  0.03062494    -0.25100
H1963       H  0.53531488  0.20527908  0.97023237     0.08800
H1964       H  0.53357080  0.20388451  0.00512451     0.12400
H1965       H  0.57731414  0.22466054  0.97505271     0.12300
H1966       H  0.58759322  0.22883634  0.00777737     0.12100
H1967       H  0.58474259  0.22883227  0.04302715     0.12600
H1968       H  0.54300634  0.20931978  0.03693733     0.14600
C1969       C  0.58201876  0.22279515  0.90794477    -0.05500
C1970       C  0.59407450  0.22892642  0.91699835    -0.05400
C1971       C  0.60683309  0.23115929  0.90671425    -0.23600
C1972       C  0.60790357  0.22702380  0.88724453     0.18700
C1973       C  0.59600304  0.22047887  0.87809076     0.15900
C1974       C  0.58308447  0.21857423  0.88840972    -0.18600
C1975       C  0.59726401  0.21589969  0.85879456    -0.20400
C1976       C  0.61016903  0.21781327  0.84867619    -0.13000
C1977       C  0.62194618  0.22460030  0.85751236     0.03700
C1978       C  0.62070203  0.22924722  0.87682382    -0.25100
H1979       H  0.59356085  0.23224280  0.93201441     0.08800
H1980       H  0.61587316  0.23608655  0.91400887     0.12400
H1981       H  0.57395459  0.21362496  0.88133218     0.12300
H1982       H  0.58829538  0.21080498  0.85155029     0.12100
H1983       H  0.61084782  0.21422378  0.83378341     0.12600
H1984       H  0.62977617  0.23434646  0.88383580     0.14600
loop_ 
_geom_bond_atom_site_label_1 
_geom_bond_atom_site_label_2 
_geom_bond_distance 
_geom_bond_site_symmetry_2 
_ccdc_geom_bond_type 
C1            N2   1.366       .  A
C1            N6   1.366       .  A
C1         C1969   1.486       .  S
N2            C3   1.361       .  A
C3            N4   1.356       .  A
C3         C1953   1.488       .  S
N4            C5   1.354       .  A
C5            N6   1.360       .  A
C5         C1937   1.477       .  S
N7           C11   1.355       .  A
N7            N8   1.319       .  A
N7          Cu15   2.095       .  S
N8            C9   1.336       .  A
N8          Cu14   2.047       .  S
C9           C10   1.378       .  A
C9           H12   1.082       .  S
C10          C70   1.474       .  S
C10          C11   1.393       .  A
C11          H13   1.082       .  S
Cu14         N17   2.049       .  S
Cu15         N25   2.101       .  S
Cu16         N18   2.091       .  S
Cu16         N24   2.096       .  S
N17          C21   1.336       .  A
N17          N18   1.318       .  A
N18          C19   1.355       .  A
C19          C20   1.393       .  A
C19          H22   1.082       .  S
C20         C140   1.478       .  S
C20          C21   1.380       .  A
C21          H23   1.082       .  S
N24          C28   1.346       .  A
N24          N25   1.328       .  A
N25          C26   1.348       .  A
C26          C27   1.386       .  A
C26          H29   1.082       .  S
C27        C1977   1.483       .  S
C27          C28   1.383       .  A
C28          H30   1.082       .  S
C31          N32   1.364       .  A
C31          N36   1.364       .  A
C31        C1921   1.485       .  S
N32          C33   1.360       .  A
C33          N34   1.358       .  A
C33        C1961   1.486       .  S
N34          C35   1.356       .  A
C35          N36   1.359       .  A
C35        C1905   1.479       .  S
N37          C41   1.355       .  A
N37          N38   1.321       .  A
N37         Cu45   2.098       .  S
N38          C39   1.337       .  A
N38         Cu44   2.059       .  S
C39          C40   1.379       .  A
C39          H42   1.082       .  S
C40         C100   1.475       .  S
C40          C41   1.392       .  A
C41          H43   1.082       .  S
Cu44         N47   2.061       .  S
Cu45         N55   2.101       .  S
Cu46         N48   2.080       .  S
Cu46         N54   2.083       .  S
N47          C51   1.340       .  A
N47          N48   1.319       .  A
N48          C49   1.351       .  A
C49          C50   1.390       .  A
C49          H52   1.082       .  S
C50         C170   1.478       .  S
C50          C51   1.384       .  A
C51          H53   1.082       .  S
N54          C58   1.343       .  A
N54          N55   1.327       .  A
N55          C56   1.350       .  A
C56          C57   1.386       .  A
C56          H59   1.082       .  S
C57        C1929   1.478       .  S
C57          C58   1.380       .  A
C58          H60   1.082       .  S
C61          N62   1.367       .  A
C61          N66   1.367       .  A
C61        C1889   1.487       .  S
N62          C63   1.360       .  A
C63          N64   1.355       .  A
C63        C1873   1.488       .  S
N64          C65   1.354       .  A
C65          N66   1.360       .  A
C65        C1857   1.480       .  S
N67          C71   1.354       .  A
N67          N68   1.318       .  A
N67         Cu75   2.086       .  S
N68          C69   1.336       .  A
N68         Cu74   2.049       .  S
C69          C70   1.380       .  A
C69          H72   1.082       .  S
C70          C71   1.391       .  A
C71          H73   1.082       .  S
Cu74         N77   2.047       .  S
Cu75         N85   2.090       .  S
Cu76         N78   2.099       .  S
Cu76         N84   2.103       .  S
N77          C81   1.336       .  A
N77          N78   1.320       .  A
N78          C79   1.355       .  A
C79          C80   1.393       .  A
C79          H82   1.082       .  S
C80         C194   1.477       .  S
C80          C81   1.378       .  A
C81          H83   1.081       .  S
N84          C88   1.349       .  A
N84          N85   1.328       .  A
N85          C86   1.345       .  A
C86          C87   1.382       .  A
C86          H89   1.082       .  S
C87        C1897   1.480       .  S
C87          C88   1.385       .  A
C88          H90   1.082       .  S
C91          N92   1.369       .  A
C91          N96   1.369       .  A
C91        C1841   1.491       .  S
N92          C93   1.361       .  A
C93          N94   1.353       .  A
C93        C1833   1.483       .  S
N94          C95   1.355       .  A
C95          N96   1.362       .  A
C95        C1881   1.491       .  S
N97         C101   1.356       .  A
N97          N98   1.321       .  A
N97        Cu105   2.099       .  S
N98          C99   1.336       .  A
N98        Cu104   2.053       .  S
C99         C100   1.377       .  A
C99         H102   1.082       .  S
C100        C101   1.393       .  A
C101        H103   1.082       .  S
Cu104       N107   2.054       .  S
Cu105       N115   2.104       .  S
Cu106       N108   2.103       .  S
Cu106       N114   2.107       .  S
N107        C111   1.339       .  A
N107        N108   1.318       .  A
N108        C109   1.356       .  A
C109        C110   1.394       .  A
C109        H112   1.082       .  S
C110        C224   1.483       .  S
C110        C111   1.382       .  A
C111        H113   1.082       .  S
N114        C118   1.346       .  A
N114        N115   1.328       .  A
N115        C116   1.351       .  A
C116        C117   1.387       .  A
C116        H119   1.082       .  S
C117       C1849   1.488       .  S
C117        C118   1.386       .  A
C118        H120   1.082       .  S
C121        N122   1.363       .  A
C121        N126   1.368       .  A
C121       C1809   1.488       .  S
N122        C123   1.357       .  A
C123        N124   1.357       .  A
C123       C1793   1.491       .  S
N124        C125   1.360       .  A
C125        N126   1.365       .  A
C125       C1777   1.483       .  S
N127        C131   1.360       .  A
N127        N128   1.320       .  A
N127       Cu135   2.112       .  S
N128        C129   1.337       .  A
N128       Cu134   2.058       .  S
C129        C130   1.381       .  A
C129        H132   1.082       .  S
C130        C184   1.486       .  S
C130        C131   1.396       .  A
C131        H133   1.082       .  S
Cu134       N137   2.057       .  S
Cu135       N145   2.116       .  S
Cu136       N138   2.089       .  S
Cu136       N144   2.094       .  S
N137        C141   1.337       .  A
N137        N138   1.318       .  A
N138        C139   1.355       .  A
C139        C140   1.392       .  A
C139        H142   1.082       .  S
C140        C141   1.381       .  A
C141        H143   1.082       .  S
N144        C148   1.343       .  A
N144        N145   1.328       .  A
N145        C146   1.353       .  A
C146        C147   1.390       .  A
C146        H149   1.082       .  S
C147       C1817   1.492       .  S
C147        C148   1.385       .  A
C148        H150   1.081       .  S
C151        N152   1.369       .  A
C151        N156   1.372       .  A
C151       C1769   1.496       .  S
N152        C153   1.359       .  A
C153        N154   1.350       .  A
C153       C1745   1.475       .  S
N154        C155   1.354       .  A
C155        N156   1.366       .  A
C155       C1801   1.487       .  S
N157        C161   1.357       .  A
N157        N158   1.321       .  A
N157       Cu165   2.117       .  S
N158        C159   1.340       .  A
N158       Cu164   2.059       .  S
C159        C160   1.379       .  A
C159        H162   1.082       .  S
C160        C214   1.481       .  S
C160        C161   1.395       .  A
C161        H163   1.082       .  S
Cu164       N167   2.058       .  S
Cu165       N175   2.121       .  S
Cu166       N168   2.095       .  S
Cu166       N174   2.099       .  S
N167        C171   1.340       .  A
N167        N168   1.320       .  A
N168        C169   1.353       .  A
C169        C170   1.392       .  A
C169        H172   1.082       .  S
C170        C171   1.381       .  A
C171        H173   1.082       .  S
N174        C178   1.347       .  A
N174        N175   1.327       .  A
N175        C176   1.353       .  A
C176        C177   1.394       .  A
C176        H179   1.081       .  S
C177       C1761   1.502       .  S
C177        C178   1.389       .  A
C178        H180   1.081       .  S
N181        C185   1.361       .  A
N181        N182   1.320       .  A
N181       Cu189   2.124       .  S
N182        C183   1.336       .  A
N182       Cu188   2.050       .  S
C183        C184   1.378       .  A
C183        H186   1.082       .  S
C184        C185   1.400       .  A
C185        H187   1.082       .  S
Cu188       N191   2.053       .  S
Cu189       N199   2.129       .  S
Cu190       N192   2.083       .  S
Cu190       N198   2.088       .  S
N191        C195   1.337       .  A
N191        N192   1.318       .  A
N192        C193   1.353       .  A
C193        C194   1.391       .  A
C193        H196   1.082       .  S
C194        C195   1.382       .  A
C195        H197   1.081       .  S
N198        C202   1.346       .  A
N198        N199   1.328       .  A
N199        C200   1.352       .  A
C200        C201   1.394       .  A
C200        H203   1.081       .  S
C201       C1729   1.495       .  S
C201        C202   1.384       .  A
C202        H204   1.081       .  S
C205        N206   1.367       .  A
C205        N210   1.365       .  A
C205       C1737   1.485       .  S
N206        C207   1.363       .  A
C207        N208   1.356       .  A
C207       C1697   1.486       .  S
N208        C209   1.357       .  A
C209        N210   1.361       .  A
C209       C1713   1.492       .  S
N211        C215   1.356       .  A
N211        N212   1.321       .  A
N211       Cu219   2.110       .  S
N212        C213   1.341       .  A
N212       Cu218   2.063       .  S
C213        C214   1.381       .  A
C213        H216   1.082       .  S
C214        C215   1.394       .  A
C215        H217   1.082       .  S
Cu218       N221   2.063       .  S
Cu219       N229   2.112       .  S
Cu220       N222   2.096       .  S
Cu220       N228   2.099       .  S
N221        C225   1.339       .  A
N221        N222   1.320       .  A
N222        C223   1.355       .  A
C223        C224   1.393       .  A
C223        H226   1.082       .  S
C224        C225   1.382       .  A
C225        H227   1.082       .  S
N228        C232   1.348       .  A
N228        N229   1.327       .  A
N229        C230   1.350       .  A
C230        C231   1.391       .  A
C230        H233   1.082       .  S
C231       C1681   1.493       .  S
C231        C232   1.387       .  A
C232        H234   1.082       .  S
C235        N236   1.368       .  A
C235        N240   1.367       .  A
C235       C1689   1.484       .  S
N236        C237   1.362       .  A
C237        N238   1.356       .  A
C237       C1721   1.492       .  S
N238        C239   1.352       .  A
C239        N240   1.361       .  A
C239       C1665   1.479       .  S
N241        C245   1.357       .  A
N241        N242   1.320       .  A
N241       Cu249   2.107       .  S
N242        C243   1.337       .  A
N242       Cu248   2.055       .  S
C243        C244   1.379       .  A
C243        H246   1.082       .  S
C244        C304   1.479       .  S
C244        C245   1.394       .  A
C245        H247   1.082       .  S
Cu248       N251   2.057       .  S
Cu249       N259   2.112       .  S
Cu250       N252   2.092       .  S
Cu250       N258   2.096       .  S
N251        C255   1.338       .  A
N251        N252   1.319       .  A
N252        C253   1.355       .  A
C253        C254   1.393       .  A
C253        H256   1.082       .  S
C254        C440   1.481       .  S
C254        C255   1.382       .  A
C255        H257   1.081       .  S
N258        C262   1.346       .  A
N258        N259   1.328       .  A
N259        C260   1.351       .  A
C260        C261   1.391       .  A
C260        H263   1.082       .  S
C261       C1657   1.494       .  S
C261        C262   1.386       .  A
C262        H264   1.082       .  S
C265        N266   1.364       .  A
C265        N270   1.370       .  A
C265       C1649   1.489       .  S
N266        C267   1.358       .  A
C267        N268   1.354       .  A
C267       C1633   1.487       .  S
N268        C269   1.356       .  A
C269        N270   1.367       .  A
C269       C1785   1.480       .  S
N271        C275   1.353       .  A
N271        N272   1.318       .  A
N271       Cu279   2.087       .  S
N272        C273   1.337       .  A
N272       Cu278   2.050       .  S
C273        C274   1.380       .  A
C273        H276   1.082       .  S
C274        C334   1.472       .  S
C274        C275   1.391       .  A
C275        H277   1.082       .  S
Cu278       N281   2.049       .  S
Cu279       N289   2.092       .  S
Cu280       N282   2.095       .  S
Cu280       N288   2.099       .  S
N281        C285   1.337       .  A
N281        N282   1.320       .  A
N282        C283   1.353       .  A
C283        C284   1.392       .  A
C283        H286   1.082       .  S
C284        C464   1.475       .  S
C284        C285   1.378       .  A
C285        H287   1.081       .  S
N288        C292   1.349       .  A
N288        N289   1.327       .  A
N289        C290   1.345       .  A
C290        C291   1.384       .  A
C290        H293   1.082       .  S
C291       C1617   1.484       .  S
C291        C292   1.386       .  A
C292        H294   1.082       .  S
C295        N296   1.369       .  A
C295        N300   1.365       .  A
C295       C1625   1.490       .  S
N296        C297   1.363       .  A
C297        N298   1.354       .  A
C297       C1753   1.479       .  S
N298        C299   1.354       .  A
C299        N300   1.359       .  A
C299       C1641   1.488       .  S
N301        C305   1.356       .  A
N301        N302   1.318       .  A
N301       Cu309   2.095       .  S
N302        C303   1.337       .  A
N302       Cu308   2.052       .  S
C303        C304   1.380       .  A
C303        H306   1.082       .  S
C304        C305   1.393       .  A
C305        H307   1.082       .  S
Cu308       N311   2.050       .  S
Cu309       N319   2.100       .  S
Cu310       N312   2.102       .  S
Cu310       N318   2.107       .  S
N311        C315   1.336       .  A
N311        N312   1.319       .  A
N312        C313   1.357       .  A
C313        C314   1.396       .  A
C313        H316   1.082       .  S
C314        C374   1.482       .  S
C314        C315   1.380       .  A
C315        H317   1.081       .  S
N318        C322   1.348       .  A
N318        N319   1.329       .  A
N319        C320   1.347       .  A
C320        C321   1.386       .  A
C320        H323   1.082       .  S
C321       C1609   1.490       .  S
C321        C322   1.388       .  A
C322        H324   1.081       .  S
C325        N326   1.364       .  A
C325        N330   1.370       .  A
C325       C1601   1.488       .  S
N326        C327   1.355       .  A
C327        N328   1.351       .  A
C327       C1593   1.480       .  S
N328        C329   1.353       .  A
C329        N330   1.366       .  A
C329       C1569   1.476       .  S
N331        C335   1.355       .  A
N331        N332   1.318       .  A
N331       Cu339   2.092       .  S
N332        C333   1.336       .  A
N332       Cu338   2.043       .  S
C333        C334   1.377       .  A
C333        H336   1.082       .  S
C334        C335   1.392       .  A
C335        H337   1.082       .  S
Cu338       N341   2.043       .  S
Cu339       N349   2.097       .  S
Cu340       N342   2.094       .  S
Cu340       N348   2.099       .  S
N341        C345   1.336       .  A
N341        N342   1.319       .  A
N342        C343   1.354       .  A
C343        C344   1.393       .  A
C343        H346   1.082       .  S
C344        C404   1.476       .  S
C344        C345   1.378       .  A
C345        H347   1.082       .  S
N348        C352   1.348       .  A
N348        N349   1.329       .  A
N349        C350   1.346       .  A
C350        C351   1.384       .  A
C350        H353   1.082       .  S
C351       C1553   1.481       .  S
C351        C352   1.384       .  A
C352        H354   1.082       .  S
C355        N356   1.365       .  A
C355        N360   1.366       .  A
C355       C1561   1.487       .  S
N356        C357   1.359       .  A
C357        N358   1.354       .  A
C357       C1585   1.481       .  S
N358        C359   1.352       .  A
C359        N360   1.359       .  A
C359       C1537   1.468       .  S
N361        C365   1.359       .  A
N361        N362   1.320       .  A
N361       Cu369   2.107       .  S
N362        C363   1.335       .  A
N362       Cu368   2.050       .  S
C363        C364   1.377       .  A
C363        H366   1.082       .  S
C364        C430   1.479       .  S
C364        C365   1.396       .  A
C365        H367   1.082       .  S
Cu368       N371   2.052       .  S
Cu369       N379   2.112       .  S
Cu370       N372   2.092       .  S
Cu370       N378   2.097       .  S
N371        C375   1.337       .  A
N371        N372   1.318       .  A
N372        C373   1.356       .  A
C373        C374   1.394       .  A
C373        H376   1.082       .  S
C374        C375   1.382       .  A
C375        H377   1.081       .  S
N378        C382   1.346       .  A
N378        N379   1.329       .  A
N379        C380   1.350       .  A
C380        C381   1.390       .  A
C380        H383   1.081       .  S
C381       C1521   1.490       .  S
C381        C382   1.384       .  A
C382        H384   1.081       .  S
C385        N386   1.369       .  A
C385        N390   1.370       .  A
C385       C1529   1.489       .  S
N386        C387   1.359       .  A
C387        N388   1.349       .  A
C387       C1865   1.473       .  S
N388        C389   1.352       .  A
C389        N390   1.362       .  A
C389       C1513   1.488       .  S
N391        C395   1.354       .  A
N391        N392   1.321       .  A
N391       Cu399   2.098       .  S
N392        C393   1.339       .  A
N392       Cu398   2.060       .  S
C393        C394   1.380       .  A
C393        H396   1.082       .  S
C394        C454   1.476       .  S
C394        C395   1.391       .  A
C395        H397   1.082       .  S
Cu398       N401   2.061       .  S
Cu399       N409   2.101       .  S
Cu400       N402   2.085       .  S
Cu400       N408   2.088       .  S
N401        C405   1.339       .  A
N401        N402   1.320       .  A
N402        C403   1.352       .  A
C403        C404   1.388       .  A
C403        H406   1.082       .  S
C404        C405   1.382       .  A
C405        H407   1.082       .  S
N408        C412   1.347       .  A
N408        N409   1.326       .  A
N409        C410   1.348       .  A
C410        C411   1.389       .  A
C410        H413   1.081       .  S
C411       C1489   1.491       .  S
C411        C412   1.387       .  A
C412        H414   1.082       .  S
C415        N416   1.370       .  A
C415        N420   1.363       .  A
C415       C1497   1.487       .  S
N416        C417   1.367       .  A
C417        N418   1.356       .  A
C417       C1825   1.484       .  S
N418        C419   1.355       .  A
C419        N420   1.355       .  A
C419       C1505   1.485       .  S
C421        N422   1.366       .  A
C421        N426   1.369       .  A
C421       C1473   1.490       .  S
N422        C423   1.359       .  A
C423        N424   1.354       .  A
C423       C1457   1.487       .  S
N424        C425   1.354       .  A
C425        N426   1.364       .  A
C425       C1441   1.481       .  S
N427        C431   1.357       .  A
N427        N428   1.318       .  A
N427       Cu435   2.094       .  S
N428        C429   1.336       .  A
N428       Cu434   2.054       .  S
C429        C430   1.381       .  A
C429        H432   1.082       .  S
C430        C431   1.394       .  A
C431        H433   1.082       .  S
Cu434       N437   2.055       .  S
Cu435       N445   2.099       .  S
Cu436       N438   2.100       .  S
Cu436       N444   2.105       .  S
N437        C441   1.337       .  A
N437        N438   1.320       .  A
N438        C439   1.356       .  A
C439        C440   1.394       .  A
C439        H442   1.082       .  S
C440        C441   1.380       .  A
C441        H443   1.081       .  S
N444        C448   1.349       .  A
N444        N445   1.329       .  A
N445        C446   1.346       .  A
C446        C447   1.383       .  A
C446        H449   1.082       .  S
C447       C1481   1.484       .  S
C447        C448   1.386       .  A
C448        H450   1.082       .  S
N451        C455   1.355       .  A
N451        N452   1.322       .  A
N451       Cu459   2.099       .  S
N452        C453   1.339       .  A
N452       Cu458   2.061       .  S
C453        C454   1.379       .  A
C453        H456   1.082       .  S
C454        C455   1.391       .  A
C455        H457   1.082       .  S
Cu458       N461   2.061       .  S
Cu459       N469   2.102       .  S
Cu460       N462   2.073       .  S
Cu460       N468   2.075       .  S
N461        C465   1.339       .  A
N461        N462   1.319       .  A
N462        C463   1.350       .  A
C463        C464   1.387       .  A
C463        H466   1.082       .  S
C464        C465   1.384       .  A
C465        H467   1.081       .  S
N468        C472   1.342       .  A
N468        N469   1.326       .  A
N469        C470   1.350       .  A
C470        C471   1.390       .  A
C470        H473   1.082       .  S
C471       C1425   1.483       .  S
C471        C472   1.381       .  A
C472        H474   1.082       .  S
C475        N476   1.364       .  A
C475        N480   1.364       .  A
C475       C1433   1.484       .  S
N476        C477   1.362       .  A
C477        N478   1.359       .  A
C477       C1465   1.488       .  S
N478        C479   1.355       .  A
C479        N480   1.357       .  A
C479       C1409   1.478       .  S
C481        N482   1.365       .  A
C481        N486   1.365       .  A
C481       C1393   1.488       .  S
N482        C483   1.360       .  A
C483        N484   1.356       .  A
C483       C1361   1.473       .  S
N484        C485   1.357       .  A
C485        N486   1.360       .  A
C485       C1377   1.482       .  S
N487        C491   1.357       .  A
N487        N488   1.319       .  A
N487       Cu495   2.103       .  S
N488        C489   1.336       .  A
N488       Cu494   2.048       .  S
C489        C490   1.378       .  A
C489        H492   1.082       .  S
C490        C550   1.478       .  S
C490        C491   1.395       .  A
C491        H493   1.082       .  S
Cu494       N497   2.049       .  S
Cu495       N505   2.108       .  S
Cu496       N498   2.085       .  S
Cu496       N504   2.090       .  S
N497        C501   1.337       .  A
N497        N498   1.318       .  A
N498        C499   1.353       .  A
C499        C500   1.391       .  A
C499        H502   1.082       .  S
C500        C620   1.475       .  S
C500        C501   1.380       .  A
C501        H503   1.081       .  S
N504        C508   1.346       .  A
N504        N505   1.329       .  A
N505        C506   1.349       .  A
C506        C507   1.386       .  A
C506        H509   1.082       .  S
C507       C1401   1.483       .  S
C507        C508   1.382       .  A
C508        H510   1.082       .  S
C511        N512   1.368       .  A
C511        N516   1.367       .  A
C511       C1345   1.488       .  S
N512        C513   1.362       .  A
C513        N514   1.353       .  A
C513       C1385   1.486       .  S
N514        C515   1.352       .  A
C515        N516   1.359       .  A
C515       C1329   1.474       .  S
N517        C521   1.357       .  A
N517        N518   1.323       .  A
N517       Cu525   2.107       .  S
N518        C519   1.339       .  A
N518       Cu524   2.078       .  S
C519        C520   1.382       .  A
C519        H522   1.082       .  S
C520        C580   1.482       .  S
C520        C521   1.394       .  A
C521        H523   1.082       .  S
Cu524       N527   2.079       .  S
Cu525       N535   2.109       .  S
Cu526       N528   2.086       .  S
Cu526       N534   2.088       .  S
N527        C531   1.344       .  A
N527        N528   1.319       .  A
N528        C529   1.353       .  A
C529        C530   1.390       .  A
C529        H532   1.082       .  S
C530        C650   1.485       .  S
C530        C531   1.387       .  A
C531        H533   1.082       .  S
N534        C538   1.344       .  A
N534        N535   1.327       .  A
N535        C536   1.352       .  A
C536        C537   1.390       .  A
C536        H539   1.082       .  S
C537       C1353   1.488       .  S
C537        C538   1.383       .  A
C538        H540   1.082       .  S
C541        N542   1.364       .  A
C541        N546   1.362       .  A
C541       C1313   1.486       .  S
N542        C543   1.363       .  A
C543        N544   1.360       .  A
C543       C1577   1.481       .  S
N544        C545   1.360       .  A
C545        N546   1.357       .  A
C545       C1297   1.491       .  S
N547        C551   1.356       .  A
N547        N548   1.320       .  A
N547       Cu555   2.100       .  S
N548        C549   1.337       .  A
N548       Cu554   2.054       .  S
C549        C550   1.380       .  A
C549        H552   1.082       .  S
C550        C551   1.393       .  A
C551        H553   1.082       .  S
Cu554       N557   2.053       .  S
Cu555       N565   2.104       .  S
Cu556       N558   2.089       .  S
Cu556       N564   2.093       .  S
N557        C561   1.337       .  A
N557        N558   1.319       .  A
N558        C559   1.353       .  A
C559        C560   1.391       .  A
C559        H562   1.082       .  S
C560        C674   1.475       .  S
C560        C561   1.380       .  A
C561        H563   1.081       .  S
N564        C568   1.346       .  A
N564        N565   1.327       .  A
N565        C566   1.350       .  A
C566        C567   1.388       .  A
C566        H569   1.082       .  S
C567       C1321   1.488       .  S
C567        C568   1.385       .  A
C568        H570   1.082       .  S
C571        N572   1.373       .  A
C571        N576   1.366       .  A
C571       C1289   1.493       .  S
N572        C573   1.369       .  A
C573        N574   1.355       .  A
C573       C1305   1.493       .  S
N574        C575   1.349       .  A
C575        N576   1.355       .  A
C575       C1545   1.471       .  S
N577        C581   1.359       .  A
N577        N578   1.320       .  A
N577       Cu585   2.118       .  S
N578        C579   1.337       .  A
N578       Cu584   2.050       .  S
C579        C580   1.378       .  A
C579        H582   1.082       .  S
C580        C581   1.398       .  A
C581        H583   1.082       .  S
Cu584       N587   2.052       .  S
Cu585       N595   2.122       .  S
Cu586       N588   2.096       .  S
Cu586       N594   2.100       .  S
N587        C591   1.340       .  A
N587        N588   1.319       .  A
N588        C589   1.353       .  A
C589        C590   1.392       .  A
C589        H592   1.082       .  S
C590        C704   1.478       .  S
C590        C591   1.380       .  A
C591        H593   1.082       .  S
N594        C598   1.348       .  A
N594        N595   1.328       .  A
N595        C596   1.352       .  A
C596        C597   1.390       .  A
C596        H599   1.082       .  S
C597       C1281   1.492       .  S
C597        C598   1.385       .  A
C598        H600   1.082       .  S
C601        N602   1.369       .  A
C601        N606   1.363       .  A
C601       C1265   1.493       .  S
N602        C603   1.365       .  A
C603        N604   1.356       .  A
C603       C1449   1.477       .  S
N604        C605   1.355       .  A
C605        N606   1.356       .  A
C605       C1249   1.484       .  S
N607        C611   1.356       .  A
N607        N608   1.321       .  A
N607       Cu615   2.107       .  S
N608        C609   1.340       .  A
N608       Cu614   2.060       .  S
C609        C610   1.380       .  A
C609        H612   1.082       .  S
C610        C664   1.479       .  S
C610        C611   1.393       .  A
C611        H613   1.082       .  S
Cu614       N617   2.059       .  S
Cu615       N625   2.110       .  S
Cu616       N618   2.084       .  S
Cu616       N624   2.088       .  S
N617        C621   1.338       .  A
N617        N618   1.320       .  A
N618        C619   1.352       .  A
C619        C620   1.389       .  A
C619        H622   1.082       .  S
C620        C621   1.381       .  A
C621        H623   1.081       .  S
N624        C628   1.346       .  A
N624        N625   1.327       .  A
N625        C626   1.350       .  A
C626        C627   1.388       .  A
C626        H629   1.082       .  S
C627       C1273   1.487       .  S
C627        C628   1.385       .  A
C628        H630   1.082       .  S
C631        N632   1.371       .  A
C631        N636   1.366       .  A
C631       C1233   1.496       .  S
N632        C633   1.365       .  A
C633        N634   1.353       .  A
C633       C1417   1.476       .  S
N634        C635   1.351       .  A
C635        N636   1.358       .  A
C635       C1257   1.481       .  S
N637        C641   1.356       .  A
N637        N638   1.320       .  A
N637       Cu645   2.106       .  S
N638        C639   1.338       .  A
N638       Cu644   2.060       .  S
C639        C640   1.381       .  A
C639        H642   1.082       .  S
C640        C694   1.479       .  S
C640        C641   1.395       .  A
C641        H643   1.082       .  S
Cu644       N647   2.060       .  S
Cu645       N655   2.110       .  S
Cu646       N648   2.110       .  S
Cu646       N654   2.113       .  S
N647        C651   1.341       .  A
N647        N648   1.320       .  A
N648        C649   1.355       .  A
C649        C650   1.395       .  A
C649        H652   1.082       .  S
C650        C651   1.381       .  A
C651        H653   1.082       .  S
N654        C658   1.350       .  A
N654        N655   1.328       .  A
N655        C656   1.349       .  A
C656        C657   1.390       .  A
C656        H659   1.082       .  S
C657       C1241   1.497       .  S
C657        C658   1.390       .  A
C658        H660   1.082       .  S
N661        C665   1.355       .  A
N661        N662   1.321       .  A
N661       Cu669   2.106       .  S
N662        C663   1.341       .  A
N662       Cu668   2.065       .  S
C663        C664   1.381       .  A
C663        H666   1.082       .  S
C664        C665   1.393       .  A
C665        H667   1.082       .  S
Cu668       N671   2.064       .  S
Cu669       N679   2.109       .  S
Cu670       N672   2.079       .  S
Cu670       N678   2.081       .  S
N671        C675   1.339       .  A
N671        N672   1.320       .  A
N672        C673   1.351       .  A
C673        C674   1.388       .  A
C673        H676   1.082       .  S
C674        C675   1.382       .  A
C675        H677   1.082       .  S
N678        C682   1.345       .  A
N678        N679   1.327       .  A
N679        C680   1.351       .  A
C680        C681   1.388       .  A
C680        H683   1.082       .  S
C681       C1217   1.481       .  S
C681        C682   1.381       .  A
C682        H684   1.082       .  S
C685        N686   1.367       .  A
C685        N690   1.369       .  A
C685       C1225   1.494       .  S
N686        C687   1.358       .  A
C687        N688   1.351       .  A
C687       C1185   1.474       .  S
N688        C689   1.356       .  A
C689        N690   1.364       .  A
C689       C1201   1.486       .  S
N691        C695   1.357       .  A
N691        N692   1.322       .  A
N691       Cu699   2.108       .  S
N692        C693   1.338       .  A
N692       Cu698   2.064       .  S
C693        C694   1.378       .  A
C693        H696   1.082       .  S
C694        C695   1.394       .  A
C695        H697   1.082       .  S
Cu698       N701   2.065       .  S
Cu699       N709   2.110       .  S
Cu700       N702   2.075       .  S
Cu700       N708   2.078       .  S
N701        C705   1.342       .  A
N701        N702   1.318       .  A
N702        C703   1.350       .  A
C703        C704   1.388       .  A
C703        H706   1.082       .  S
C704        C705   1.385       .  A
C705        H707   1.082       .  S
N708        C712   1.341       .  A
N708        N709   1.326       .  A
N709        C710   1.352       .  A
C710        C711   1.390       .  A
C710        H713   1.082       .  S
C711       C1169   1.485       .  S
C711        C712   1.381       .  A
C712        H714   1.082       .  S
C715        N716   1.364       .  A
C715        N720   1.367       .  A
C715       C1177   1.487       .  S
N716        C717   1.357       .  A
C717        N718   1.355       .  A
C717       C1209   1.484       .  S
N718        C719   1.355       .  A
C719        N720   1.362       .  A
C719       C1153   1.478       .  S
C721        N722   1.370       .  A
C721        N726   1.369       .  A
C721       C1137   1.495       .  S
N722        C723   1.361       .  A
C723        N724   1.353       .  A
C723       C1121   1.487       .  S
N724        C725   1.351       .  A
C725        N726   1.361       .  A
C725       C1945   1.474       .  S
N727        C731   1.357       .  A
N727        N728   1.319       .  A
N727       Cu735   2.105       .  S
N728        C729   1.337       .  A
N728       Cu734   2.049       .  S
C729        C730   1.378       .  A
C729        H732   1.082       .  S
C730        C790   1.478       .  S
C730        C731   1.395       .  A
C731        H733   1.082       .  S
Cu734       N737   2.051       .  S
Cu735       N745   2.110       .  S
Cu736       N738   2.103       .  S
Cu736       N744   2.107       .  S
N737        C741   1.337       .  A
N737        N738   1.319       .  A
N738        C739   1.356       .  A
C739        C740   1.395       .  A
C739        H742   1.082       .  S
C740        C860   1.482       .  S
C740        C741   1.381       .  A
C741        H743   1.081       .  S
N744        C748   1.350       .  A
N744        N745   1.328       .  A
N745        C746   1.349       .  A
C746        C747   1.388       .  A
C746        H749   1.082       .  S
C747       C1145   1.493       .  S
C747        C748   1.388       .  A
C748        H750   1.082       .  S
C751        N752   1.366       .  A
C751        N756   1.369       .  A
C751       C1113   1.487       .  S
N752        C753   1.358       .  A
C753        N754   1.353       .  A
C753       C1129   1.485       .  S
N754        C755   1.354       .  A
C755        N756   1.364       .  A
C755       C1913   1.476       .  S
N757        C761   1.357       .  A
N757        N758   1.320       .  A
N757       Cu765   2.102       .  S
N758        C759   1.335       .  A
N758       Cu764   2.050       .  S
C759        C760   1.378       .  A
C759        H762   1.082       .  S
C760        C820   1.478       .  S
C760        C761   1.394       .  A
C761        H763   1.082       .  S
Cu764       N767   2.051       .  S
Cu765       N775   2.107       .  S
Cu766       N768   2.097       .  S
Cu766       N774   2.102       .  S
N767        C771   1.336       .  A
N767        N768   1.318       .  A
N768        C769   1.357       .  A
C769        C770   1.395       .  A
C769        H772   1.082       .  S
C770        C890   1.482       .  S
C770        C771   1.382       .  A
C771        H773   1.081       .  S
N774        C778   1.345       .  A
N774        N775   1.328       .  A
N775        C776   1.351       .  A
C776        C777   1.390       .  A
C776        H779   1.082       .  S
C777       C1105   1.493       .  S
C777        C778   1.387       .  A
C778        H780   1.081       .  S
C781        N782   1.366       .  A
C781        N786   1.369       .  A
C781       C1089   1.488       .  S
N782        C783   1.359       .  A
C783        N784   1.354       .  A
C783       C1081   1.482       .  S
N784        C785   1.354       .  A
C785        N786   1.365       .  A
C785       C1193   1.482       .  S
N787        C791   1.355       .  A
N787        N788   1.320       .  A
N787       Cu795   2.093       .  S
N788        C789   1.339       .  A
N788       Cu794   2.063       .  S
C789        C790   1.382       .  A
C789        H792   1.082       .  S
C790        C791   1.392       .  A
C791        H793   1.082       .  S
Cu794       N797   2.063       .  S
Cu795       N805   2.097       .  S
Cu796       N798   2.103       .  S
Cu796       N804   2.106       .  S
N797        C801   1.340       .  A
N797        N798   1.321       .  A
N798        C799   1.355       .  A
C799        C800   1.393       .  A
C799        H802   1.082       .  S
C800        C920   1.482       .  S
C800        C801   1.382       .  A
C801        H803   1.081       .  S
N804        C808   1.351       .  A
N804        N805   1.327       .  A
N805        C806   1.346       .  A
C806        C807   1.386       .  A
C806        H809   1.082       .  S
C807       C1097   1.490       .  S
C807        C808   1.389       .  A
C808        H810   1.082       .  S
C811        N812   1.366       .  A
C811        N816   1.369       .  A
C811       C1065   1.492       .  S
N812        C813   1.359       .  A
C813        N814   1.355       .  A
C813       C1073   1.484       .  S
N814        C815   1.356       .  A
C815        N816   1.362       .  A
C815       C1161   1.483       .  S
N817        C821   1.356       .  A
N817        N818   1.320       .  A
N817       Cu825   2.097       .  S
N818        C819   1.336       .  A
N818       Cu824   2.057       .  S
C819        C820   1.379       .  A
C819        H822   1.082       .  S
C820        C821   1.393       .  A
C821        H823   1.082       .  S
Cu824       N827   2.058       .  S
Cu825       N835   2.101       .  S
Cu826       N828   2.101       .  S
Cu826       N834   2.105       .  S
N827        C831   1.340       .  A
N827        N828   1.319       .  A
N828        C829   1.355       .  A
C829        C830   1.394       .  A
C829        H832   1.082       .  S
C830        C950   1.484       .  S
C830        C831   1.383       .  A
C831        H833   1.082       .  S
N834        C838   1.347       .  A
N834        N835   1.328       .  A
N835        C836   1.350       .  A
C836        C837   1.386       .  A
C836        H839   1.082       .  S
C837       C1057   1.484       .  S
C837        C838   1.384       .  A
C838        H840   1.082       .  S
C841        N842   1.372       .  A
C841        N846   1.369       .  A
C841       C1049   1.497       .  S
N842        C843   1.366       .  A
C843        N844   1.353       .  A
C843       C1025   1.491       .  S
N844        C845   1.348       .  A
C845        N846   1.359       .  A
C845       C1369   1.475       .  S
N847        C851   1.358       .  A
N847        N848   1.320       .  A
N847       Cu855   2.111       .  S
N848        C849   1.338       .  A
N848       Cu854   2.054       .  S
C849        C850   1.379       .  A
C849        H852   1.082       .  S
C850        C910   1.480       .  S
C850        C851   1.395       .  A
C851        H853   1.082       .  S
Cu854       N857   2.055       .  S
Cu855       N865   2.115       .  S
Cu856       N858   2.099       .  S
Cu856       N864   2.104       .  S
N857        C861   1.338       .  A
N857        N858   1.319       .  A
N858        C859   1.356       .  A
C859        C860   1.394       .  A
C859        H862   1.082       .  S
C860        C861   1.382       .  A
C861        H863   1.081       .  S
N864        C868   1.347       .  A
N864        N865   1.329       .  A
N865        C866   1.352       .  A
C866        C867   1.389       .  A
C866        H869   1.082       .  S
C867       C1041   1.490       .  S
C867        C868   1.385       .  A
C868        H870   1.082       .  S
C871        N872   1.364       .  A
C871        N876   1.367       .  A
C871       C1009   1.481       .  S
N872        C873   1.356       .  A
C873        N874   1.353       .  A
C873       C1337   1.469       .  S
N874        C875   1.356       .  A
C875        N876   1.364       .  A
C875       C1033   1.484       .  S
N877        C881   1.358       .  A
N877        N878   1.319       .  A
N877       Cu885   2.108       .  S
N878        C879   1.336       .  A
N878       Cu884   2.047       .  S
C879        C880   1.377       .  A
C879        H882   1.082       .  S
C880        C940   1.478       .  S
C880        C881   1.396       .  A
C881        H883   1.082       .  S
Cu884       N887   2.048       .  S
Cu885       N895   2.112       .  S
Cu886       N888   2.096       .  S
Cu886       N894   2.101       .  S
N887        C891   1.335       .  A
N887        N888   1.318       .  A
N888        C889   1.357       .  A
C889        C890   1.396       .  A
C889        H892   1.082       .  S
C890        C891   1.381       .  A
C891        H893   1.081       .  S
N894        C898   1.347       .  A
N894        N895   1.330       .  A
N895        C896   1.350       .  A
C896        C897   1.386       .  A
C896        H899   1.082       .  S
C897       C1017   1.484       .  S
C897        C898   1.383       .  A
C898        H900   1.082       .  S
C901        N902   1.370       .  A
C901        N906   1.365       .  A
C901        C993   1.494       .  S
N902        C903   1.365       .  A
C903        N904   1.355       .  A
C903       C1705   1.480       .  S
N904        C905   1.354       .  A
C905        N906   1.357       .  A
C905        C985   1.486       .  S
N907        C911   1.358       .  A
N907        N908   1.321       .  A
N907       Cu915   2.109       .  S
N908        C909   1.337       .  A
N908       Cu914   2.059       .  S
C909        C910   1.379       .  A
C909        H912   1.082       .  S
C910        C911   1.395       .  A
C911        H913   1.082       .  S
Cu914       N917   2.059       .  S
Cu915       N925   2.113       .  S
Cu916       N918   2.091       .  S
Cu916       N924   2.095       .  S
N917        C921   1.340       .  A
N917        N918   1.318       .  A
N918        C919   1.354       .  A
C919        C920   1.393       .  A
C919        H922   1.082       .  S
C920        C921   1.383       .  A
C921        H923   1.081       .  S
N924        C928   1.343       .  A
N924        N925   1.328       .  A
N925        C926   1.354       .  A
C926        C927   1.390       .  A
C926        H929   1.082       .  S
C927       C1001   1.490       .  S
C927        C928   1.384       .  A
C928        H930   1.082       .  S
C931        N932   1.370       .  A
C931        N936   1.367       .  A
C931        C961   1.492       .  S
N932        C933   1.363       .  A
C933        N934   1.353       .  A
C933       C1673   1.476       .  S
N934        C935   1.354       .  A
C935        N936   1.359       .  A
C935        C977   1.483       .  S
N937        C941   1.356       .  A
N937        N938   1.321       .  A
N937       Cu945   2.099       .  S
N938        C939   1.339       .  A
N938       Cu944   2.066       .  S
C939        C940   1.381       .  A
C939        H942   1.082       .  S
C940        C941   1.393       .  A
C941        H943   1.082       .  S
Cu944       N947   2.067       .  S
Cu945       N955   2.103       .  S
Cu946       N948   2.101       .  S
Cu946       N954   2.104       .  S
N947        C951   1.341       .  A
N947        N948   1.320       .  A
N948        C949   1.355       .  A
C949        C950   1.393       .  A
C949        H952   1.082       .  S
C950        C951   1.383       .  A
C951        H953   1.082       .  S
N954        C958   1.349       .  A
N954        N955   1.327       .  A
N955        C956   1.348       .  A
C956        C957   1.388       .  A
C956        H959   1.082       .  S
C957        C969   1.491       .  S
C957        C958   1.387       .  A
C958        H960   1.082       .  S
C961        C962   1.408       .  A
C961        C966   1.409       .  A
C962        C963   1.400       .  A
C962        H971   1.083       .  S
C963        C964   1.402       .  A
C963        H972   1.083       .  S
C964        C970   1.410       .  A
C964        C965   1.414       .  A
C965        C967   1.403       .  A
C965        C966   1.411       .  A
C966        H973   1.084       .  S
C967        C968   1.400       .  A
C967        H974   1.083       .  S
C968        C969   1.407       .  A
C968        H975   1.082       .  S
C969        C970   1.409       .  A
C970        H976   1.084       .  S
C977        C978   1.406       .  A
C977        C982   1.410       .  A
C978        C979   1.393       .  A
C978        H987   1.084       .  S
C979        C980   1.399       .  A
C979        H988   1.083       .  S
C980        C986   1.401       .  A
C980        C981   1.414       .  A
C981        C983   1.406       .  A
C981        C982   1.413       .  A
C982        H989   1.083       .  S
C983        C984   1.405       .  A
C983        H990   1.083       .  S
C984        C985   1.407       .  A
C984        H991   1.083       .  S
C985        C986   1.405       .  A
C986        H992   1.084       .  S
C993        C994   1.408       .  A
C993        C998   1.408       .  A
C994        C995   1.407       .  A
C994       H1003   1.083       .  S
C995        C996   1.407       .  A
C995       H1004   1.083       .  S
C996       C1002   1.416       .  A
C996        C997   1.413       .  A
C997        C999   1.399       .  A
C997        C998   1.404       .  A
C998       H1005   1.084       .  S
C999       C1000   1.394       .  A
C999       H1006   1.083       .  S
C1000      C1001   1.405       .  A
C1000      H1007   1.083       .  S
C1001      C1002   1.412       .  A
C1002      H1008   1.083       .  S
C1009      C1010   1.404       .  A
C1009      C1014   1.408       .  A
C1010      C1011   1.397       .  A
C1010      H1019   1.084       .  S
C1011      C1012   1.402       .  A
C1011      H1020   1.083       .  S
C1012      C1018   1.406       .  A
C1012      C1013   1.415       .  A
C1013      C1015   1.405       .  A
C1013      C1014   1.411       .  A
C1014      H1021   1.083       .  S
C1015      C1016   1.403       .  A
C1015      H1022   1.083       .  S
C1016      C1017   1.405       .  A
C1016      H1023   1.083       .  S
C1017      C1018   1.405       .  A
C1018      H1024   1.083       .  S
C1025      C1026   1.410       .  A
C1025      C1030   1.411       .  A
C1026      C1027   1.390       .  A
C1026      H1035   1.083       .  S
C1027      C1028   1.396   1_556  A
C1027      H1036   1.083   1_556  S
C1028      C1034   1.401       .  A
C1028      C1029   1.414   1_554  A
C1029      C1031   1.407   1_556  A
C1029      C1030   1.416       .  A
C1030      H1037   1.083       .  S
C1031      C1032   1.407       .  A
C1031      H1038   1.083   1_554  S
C1032      C1033   1.406       .  A
C1032      H1039   1.083       .  S
C1033      C1034   1.404       .  A
C1034      H1040   1.084       .  S
C1041      C1042   1.406       .  A
C1041      C1046   1.408       .  A
C1042      C1043   1.401       .  A
C1042      H1051   1.083       .  S
C1043      C1044   1.404       .  A
C1043      H1052   1.083       .  S
C1044      C1050   1.413       .  A
C1044      C1045   1.414       .  A
C1045      C1047   1.402       .  A
C1045      C1046   1.413       .  A
C1046      H1053   1.084       .  S
C1047      C1048   1.401       .  A
C1047      H1054   1.083       .  S
C1048      C1049   1.409       .  A
C1048      H1055   1.083       .  S
C1049      C1050   1.411       .  A
C1050      H1056   1.083       .  S
C1057      C1058   1.404       .  A
C1057      C1062   1.408       .  A
C1058      C1059   1.399       .  A
C1058      H1067   1.083       .  S
C1059      C1060   1.403       .  A
C1059      H1068   1.083       .  S
C1060      C1066   1.407       .  A
C1060      C1061   1.414       .  A
C1061      C1063   1.404       .  A
C1061      C1062   1.411       .  A
C1062      H1069   1.083       .  S
C1063      C1064   1.402       .  A
C1063      H1070   1.083       .  S
C1064      C1065   1.407       .  A
C1064      H1071   1.083       .  S
C1065      C1066   1.410       .  A
C1066      H1072   1.083       .  S
C1073      C1074   1.406       .  A
C1073      C1078   1.406       .  A
C1074      C1075   1.404       .  A
C1074      H1083   1.083       .  S
C1075      C1076   1.406       .  A
C1075      H1084   1.083       .  S
C1076      C1082   1.412       .  A
C1076      C1077   1.414       .  A
C1077      C1079   1.399       .  A
C1077      C1078   1.402       .  A
C1078      H1085   1.084       .  S
C1079      C1080   1.393       .  A
C1079      H1086   1.083       .  S
C1080      C1081   1.406       .  A
C1080      H1087   1.084       .  S
C1081      C1082   1.410       .  A
C1082      H1088   1.084       .  S
C1089      C1090   1.406       .  A
C1089      C1094   1.408       .  A
C1090      C1091   1.400       .  A
C1090      H1099   1.084       .  S
C1091      C1092   1.403       .  A
C1091      H1100   1.083       .  S
C1092      C1098   1.412       .  A
C1092      C1093   1.415       .  A
C1093      C1095   1.403       .  A
C1093      C1094   1.412       .  A
C1094      H1101   1.083       .  S
C1095      C1096   1.400       .  A
C1095      H1102   1.083       .  S
C1096      C1097   1.407       .  A
C1096      H1103   1.083       .  S
C1097      C1098   1.408       .  A
C1098      H1104   1.083       .  S
C1105      C1106   1.408       .  A
C1105      C1110   1.407       .  A
C1106      C1107   1.405       .  A
C1106      H1115   1.082       .  S
C1107      C1108   1.405       .  A
C1107      H1116   1.084       .  S
C1108      C1114   1.414       .  A
C1108      C1109   1.413       .  A
C1109      C1111   1.400       .  A
C1109      C1110   1.404       .  A
C1110      H1117   1.083       .  S
C1111      C1112   1.395       .  A
C1111      H1118   1.084       .  S
C1112      C1113   1.406       .  A
C1112      H1119   1.083       .  S
C1113      C1114   1.411       .  A
C1114      H1120   1.084       .  S
C1121      C1122   1.407       .  A
C1121      C1126   1.411       .  A
C1122      C1123   1.391       .  A
C1122      H1131   1.083       .  S
C1123      C1124   1.397   1_556  A
C1123      H1132   1.084   1_556  S
C1124      C1130   1.401       .  A
C1124      C1125   1.414       .  A
C1125      C1127   1.407       .  A
C1125      C1126   1.415   1_554  A
C1126      H1133   1.084       .  S
C1127      C1128   1.406       .  A
C1127      H1134   1.083       .  S
C1128      C1129   1.406       .  A
C1128      H1135   1.083       .  S
C1129      C1130   1.405       .  A
C1130      H1136   1.084       .  S
C1137      C1138   1.408       .  A
C1137      C1142   1.411       .  A
C1138      C1139   1.400       .  A
C1138      H1147   1.083       .  S
C1139      C1140   1.402       .  A
C1139      H1148   1.083       .  S
C1140      C1146   1.411       .  A
C1140      C1141   1.413       .  A
C1141      C1143   1.404       .  A
C1141      C1142   1.412       .  A
C1142      H1149   1.083       .  S
C1143      C1144   1.401       .  A
C1143      H1150   1.083       .  S
C1144      C1145   1.407       .  A
C1144      H1151   1.083       .  S
C1145      C1146   1.409       .  A
C1146      H1152   1.083       .  S
C1153      C1154   1.404       .  A
C1153      C1158   1.402       .  A
C1154      C1155   1.407       .  A
C1154      H1163   1.083       .  S
C1155      C1156   1.408   1_565  A
C1155      H1164   1.082   1_565  S
C1156      C1162   1.415       .  A
C1156      C1157   1.415       .  A
C1157      C1159   1.399       .  A
C1157      C1158   1.403   1_545  A
C1158      H1165   1.084       .  S
C1159      C1160   1.393       .  A
C1159      H1166   1.083       .  S
C1160      C1161   1.405       .  A
C1160      H1167   1.084       .  S
C1161      C1162   1.411       .  A
C1162      H1168   1.083       .  S
C1169      C1170   1.406       .  A
C1169      C1174   1.409       .  A
C1170      C1171   1.395       .  A
C1170      H1179   1.083       .  S
C1171      C1172   1.400       .  A
C1171      H1180   1.083       .  S
C1172      C1178   1.403       .  A
C1172      C1173   1.413       .  A
C1173      C1175   1.405       .  A
C1173      C1174   1.411       .  A
C1174      H1181   1.083       .  S
C1175      C1176   1.403       .  A
C1175      H1182   1.083       .  S
C1176      C1177   1.407       .  A
C1176      H1183   1.083       .  S
C1177      C1178   1.407       .  A
C1178      H1184   1.084       .  S
C1185      C1186   1.402       .  A
C1185      C1190   1.408       .  A
C1186      C1187   1.396       .  A
C1186      H1195   1.084       .  S
C1187      C1188   1.402   1_565  A
C1187      H1196   1.083   1_565  S
C1188      C1194   1.405       .  A
C1188      C1189   1.414       .  A
C1189      C1191   1.407       .  A
C1189      C1190   1.413   1_545  A
C1190      H1197   1.084       .  S
C1191      C1192   1.405       .  A
C1191      H1198   1.083       .  S
C1192      C1193   1.404       .  A
C1192      H1199   1.083       .  S
C1193      C1194   1.407       .  A
C1194      H1200   1.084       .  S
C1201      C1202   1.407       .  A
C1201      C1206   1.411       .  A
C1202      C1203   1.391       .  A
C1202      H1211   1.083       .  S
C1203      C1204   1.397       .  A
C1203      H1212   1.083       .  S
C1204      C1210   1.400       .  A
C1204      C1205   1.414       .  A
C1205      C1207   1.407       .  A
C1205      C1206   1.414       .  A
C1206      H1213   1.083       .  S
C1207      C1208   1.406       .  A
C1207      H1214   1.083       .  S
C1208      C1209   1.407       .  A
C1208      H1215   1.083       .  S
C1209      C1210   1.404       .  A
C1210      H1216   1.084       .  S
C1217      C1218   1.405       .  A
C1217      C1222   1.404       .  A
C1218      C1219   1.401       .  A
C1218      H1227   1.084       .  S
C1219      C1220   1.404       .  A
C1219      H1228   1.083       .  S
C1220      C1226   1.411       .  A
C1220      C1221   1.414       .  A
C1221      C1223   1.400       .  A
C1221      C1222   1.408       .  A
C1222      H1229   1.084       .  S
C1223      C1224   1.398       .  A
C1223      H1230   1.083       .  S
C1224      C1225   1.409       .  A
C1224      H1231   1.083       .  S
C1225      C1226   1.412       .  A
C1226      H1232   1.083       .  S
C1233      C1234   1.410       .  A
C1233      C1238   1.411       .  A
C1234      C1235   1.399       .  A
C1234      H1243   1.083       .  S
C1235      C1236   1.401       .  A
C1235      H1244   1.084       .  S
C1236      C1242   1.411       .  A
C1236      C1237   1.414       .  A
C1237      C1239   1.403       .  A
C1237      C1238   1.414       .  A
C1238      H1245   1.084       .  S
C1239      C1240   1.402       .  A
C1239      H1246   1.084       .  S
C1240      C1241   1.408       .  A
C1240      H1247   1.082       .  S
C1241      C1242   1.410       .  A
C1242      H1248   1.084       .  S
C1249      C1250   1.407       .  A
C1249      C1254   1.406       .  A
C1250      C1251   1.401       .  A
C1250      H1259   1.083       .  S
C1251      C1252   1.404       .  A
C1251      H1260   1.083       .  S
C1252      C1258   1.409   1_556  A
C1252      C1253   1.414       .  A
C1253      C1255   1.400       .  A
C1253      C1254   1.403       .  A
C1254      H1261   1.084       .  S
C1255      C1256   1.394   1_556  A
C1255      H1262   1.083       .  S
C1256      C1257   1.406       .  A
C1256      H1263   1.083       .  S
C1257      C1258   1.408       .  A
C1258      H1264   1.084       .  S
C1265      C1266   1.409       .  A
C1265      C1270   1.411       .  A
C1266      C1267   1.396       .  A
C1266      H1275   1.083       .  S
C1267      C1268   1.400       .  A
C1267      H1276   1.083       .  S
C1268      C1274   1.407       .  A
C1268      C1269   1.414       .  A
C1269      C1271   1.405       .  A
C1269      C1270   1.413       .  A
C1270      H1277   1.083       .  S
C1271      C1272   1.403       .  A
C1271      H1278   1.083       .  S
C1272      C1273   1.406       .  A
C1272      H1279   1.083       .  S
C1273      C1274   1.406       .  A
C1274      H1280   1.084       .  S
C1281      C1282   1.407       .  A
C1281      C1286   1.407       .  A
C1282      C1283   1.404       .  A
C1282      H1291   1.083       .  S
C1283      C1284   1.404       .  A
C1283      H1292   1.083       .  S
C1284      C1290   1.415       .  A
C1284      C1285   1.415       .  A
C1285      C1287   1.400       .  A
C1285      C1286   1.410       .  A
C1286      H1293   1.083       .  S
C1287      C1288   1.398       .  A
C1287      H1294   1.083       .  S
C1288      C1289   1.409       .  A
C1288      H1295   1.083       .  S
C1289      C1290   1.410       .  A
C1290      H1296   1.083       .  S
C1297      C1298   1.410       .  A
C1297      C1302   1.404       .  A
C1298      C1299   1.405       .  A
C1298      H1307   1.083       .  S
C1299      C1300   1.405       .  A
C1299      H1308   1.083       .  S
C1300      C1306   1.417       .  A
C1300      C1301   1.415       .  A
C1301      C1303   1.396       .  A
C1301      C1302   1.404       .  A
C1302      H1309   1.084       .  S
C1303      C1304   1.391       .  A
C1303      H1310   1.084       .  S
C1304      C1305   1.410       .  A
C1304      H1311   1.083       .  S
C1305      C1306   1.411       .  A
C1306      H1312   1.083       .  S
C1313      C1314   1.406       .  A
C1313      C1318   1.411       .  A
C1314      C1315   1.394       .  A
C1314      H1323   1.083       .  S
C1315      C1316   1.399       .  A
C1315      H1324   1.084       .  S
C1316      C1322   1.404       .  A
C1316      C1317   1.414       .  A
C1317      C1319   1.405       .  A
C1317      C1318   1.413       .  A
C1318      H1325   1.084       .  S
C1319      C1320   1.404       .  A
C1319      H1326   1.083       .  S
C1320      C1321   1.407       .  A
C1320      H1327   1.083       .  S
C1321      C1322   1.405       .  A
C1322      H1328   1.084       .  S
C1329      C1330   1.403       .  A
C1329      C1334   1.403       .  A
C1330      C1331   1.404       .  A
C1330      H1339   1.083       .  S
C1331      C1332   1.407       .  A
C1331      H1340   1.083       .  S
C1332      C1338   1.410       .  A
C1332      C1333   1.415       .  A
C1333      C1335   1.401       .  A
C1333      C1334   1.400       .  A
C1334      H1341   1.085       .  S
C1335      C1336   1.393       .  A
C1335      H1342   1.083       .  S
C1336      C1337   1.401       .  A
C1336      H1343   1.084       .  S
C1337      C1338   1.407       .  A
C1338      H1344   1.084       .  S
C1345      C1346   1.407       .  A
C1345      C1350   1.408       .  A
C1346      C1347   1.401       .  A
C1346      H1355   1.083       .  S
C1347      C1348   1.403       .  A
C1347      H1356   1.083       .  S
C1348      C1354   1.410       .  A
C1348      C1349   1.414       .  A
C1349      C1351   1.402       .  A
C1349      C1350   1.408       .  A
C1350      H1357   1.083       .  S
C1351      C1352   1.398       .  A
C1351      H1358   1.083       .  S
C1352      C1353   1.407       .  A
C1352      H1359   1.083       .  S
C1353      C1354   1.408       .  A
C1354      H1360   1.083       .  S
C1361      C1362   1.402       .  A
C1361      C1366   1.403       .  A
C1362      C1363   1.402       .  A
C1362      H1371   1.083       .  S
C1363      C1364   1.405       .  A
C1363      H1372   1.083       .  S
C1364      C1370   1.411       .  A
C1364      C1365   1.416       .  A
C1365      C1367   1.401       .  A
C1365      C1366   1.405       .  A
C1366      H1373   1.084       .  S
C1367      C1368   1.396       .  A
C1367      H1374   1.083       .  S
C1368      C1369   1.404       .  A
C1368      H1375   1.084       .  S
C1369      C1370   1.406       .  A
C1370      H1376   1.084       .  S
C1377      C1378   1.406       .  A
C1377      C1382   1.404       .  A
C1378      C1379   1.405       .  A
C1378      H1387   1.083       .  S
C1379      C1380   1.406   1_556  A
C1379      H1388   1.083       .  S
C1380      C1386   1.413       .  A
C1380      C1381   1.414   1_554  A
C1381      C1383   1.398   1_556  A
C1381      C1382   1.402       .  A
C1382      H1389   1.084       .  S
C1383      C1384   1.392       .  A
C1383      H1390   1.083   1_554  S
C1384      C1385   1.408       .  A
C1384      H1391   1.084       .  S
C1385      C1386   1.410       .  A
C1386      H1392   1.083       .  S
C1393      C1394   1.407       .  A
C1393      C1398   1.410       .  A
C1394      C1395   1.398       .  A
C1394      H1403   1.083       .  S
C1395      C1396   1.402       .  A
C1395      H1404   1.084       .  S
C1396      C1402   1.406       .  A
C1396      C1397   1.414       .  A
C1397      C1399   1.404       .  A
C1397      C1398   1.408       .  A
C1398      H1405   1.084       .  S
C1399      C1400   1.401       .  A
C1399      H1406   1.083       .  S
C1400      C1401   1.405       .  A
C1400      H1407   1.083       .  S
C1401      C1402   1.406       .  A
C1402      H1408   1.084       .  S
C1409      C1410   1.404       .  A
C1409      C1414   1.404       .  A
C1410      C1411   1.403       .  A
C1410      H1419   1.083       .  S
C1411      C1412   1.405       .  A
C1411      H1420   1.083       .  S
C1412      C1418   1.413       .  A
C1412      C1413   1.415       .  A
C1413      C1415   1.400       .  A
C1413      C1414   1.405       .  A
C1414      H1421   1.084       .  S
C1415      C1416   1.396       .  A
C1415      H1422   1.083       .  S
C1416      C1417   1.404       .  A
C1416      H1423   1.084       .  S
C1417      C1418   1.407       .  A
C1418      H1424   1.084       .  S
C1425      C1426   1.407       .  A
C1425      C1430   1.405       .  A
C1426      C1427   1.399       .  A
C1426      H1435   1.083       .  S
C1427      C1428   1.402       .  A
C1427      H1436   1.083       .  S
C1428      C1434   1.408       .  A
C1428      C1429   1.415       .  A
C1429      C1431   1.401       .  A
C1429      C1430   1.406       .  A
C1430      H1437   1.083       .  S
C1431      C1432   1.397       .  A
C1431      H1438   1.083       .  S
C1432      C1433   1.406       .  A
C1432      H1439   1.083       .  S
C1433      C1434   1.408       .  A
C1434      H1440   1.083       .  S
C1441      C1442   1.404       .  A
C1441      C1446   1.405       .  A
C1442      C1443   1.406       .  A
C1442      H1451   1.083       .  S
C1443      C1444   1.408       .  A
C1443      H1452   1.083       .  S
C1444      C1450   1.415       .  A
C1444      C1445   1.414       .  A
C1445      C1447   1.401       .  A
C1445      C1446   1.405       .  A
C1446      H1453   1.085       .  S
C1447      C1448   1.396       .  A
C1447      H1454   1.084       .  S
C1448      C1449   1.402       .  A
C1448      H1455   1.084       .  S
C1449      C1450   1.410       .  A
C1450      H1456   1.084       .  S
C1457      C1458   1.407       .  A
C1457      C1462   1.411       .  A
C1458      C1459   1.392       .  A
C1458      H1467   1.083       .  S
C1459      C1460   1.398       .  A
C1459      H1468   1.084       .  S
C1460      C1466   1.401   1_556  A
C1460      C1461   1.413       .  A
C1461      C1463   1.406       .  A
C1461      C1462   1.412       .  A
C1462      H1469   1.084       .  S
C1463      C1464   1.405   1_556  A
C1463      H1470   1.084       .  S
C1464      C1465   1.408       .  A
C1464      H1471   1.083       .  S
C1465      C1466   1.406       .  A
C1466      H1472   1.084       .  S
C1473      C1474   1.408       .  A
C1473      C1478   1.409       .  A
C1474      C1475   1.399       .  A
C1474      H1483   1.083       .  S
C1475      C1476   1.401       .  A
C1475      H1484   1.083       .  S
C1476      C1482   1.409       .  A
C1476      C1477   1.415       .  A
C1477      C1479   1.404       .  A
C1477      C1478   1.411       .  A
C1478      H1485   1.083       .  S
C1479      C1480   1.400       .  A
C1479      H1486   1.083       .  S
C1480      C1481   1.405       .  A
C1480      H1487   1.083       .  S
C1481      C1482   1.406       .  A
C1482      H1488   1.084       .  S
C1489      C1490   1.407       .  A
C1489      C1494   1.408       .  A
C1490      C1491   1.401       .  A
C1490      H1499   1.082       .  S
C1491      C1492   1.403       .  A
C1491      H1500   1.084       .  S
C1492      C1498   1.413       .  A
C1492      C1493   1.415       .  A
C1493      C1495   1.400       .  A
C1493      C1494   1.408       .  A
C1494      H1501   1.084       .  S
C1495      C1496   1.396       .  A
C1495      H1502   1.084       .  S
C1496      C1497   1.407       .  A
C1496      H1503   1.083       .  S
C1497      C1498   1.408       .  A
C1498      H1504   1.084       .  S
C1505      C1506   1.408       .  A
C1505      C1510   1.403       .  A
C1506      C1507   1.406       .  A
C1506      H1515   1.083       .  S
C1507      C1508   1.406       .  A
C1507      H1516   1.083       .  S
C1508      C1514   1.415       .  A
C1508      C1509   1.414       .  A
C1509      C1511   1.395       .  A
C1509      C1510   1.399       .  A
C1510      H1517   1.084       .  S
C1511      C1512   1.389       .  A
C1511      H1518   1.084       .  S
C1512      C1513   1.409       .  A
C1512      H1519   1.083       .  S
C1513      C1514   1.411       .  A
C1514      H1520   1.083       .  S
C1521      C1522   1.406       .  A
C1521      C1526   1.410       .  A
C1522      C1523   1.401       .  A
C1522      H1531   1.083       .  S
C1523      C1524   1.404       .  A
C1523      H1532   1.083       .  S
C1524      C1530   1.409       .  A
C1524      C1525   1.413       .  A
C1525      C1527   1.404       .  A
C1525      C1526   1.408       .  A
C1526      H1533   1.083       .  S
C1527      C1528   1.400       .  A
C1527      H1534   1.083       .  S
C1528      C1529   1.406       .  A
C1528      H1535   1.083       .  S
C1529      C1530   1.410       .  A
C1530      H1536   1.083       .  S
C1537      C1538   1.402       .  A
C1537      C1542   1.405       .  A
C1538      C1539   1.396       .  A
C1538      H1547   1.084       .  S
C1539      C1540   1.402   1_655  A
C1539      H1548   1.084       .  S
C1540      C1546   1.403       .  A
C1540      C1541   1.415   1_455  A
C1541      C1543   1.405   1_655  A
C1541      C1542   1.408       .  A
C1542      H1549   1.084       .  S
C1543      C1544   1.401       .  A
C1543      H1550   1.083       .  S
C1544      C1545   1.402       .  A
C1544      H1551   1.083       .  S
C1545      C1546   1.404       .  A
C1546      H1552   1.085       .  S
C1553      C1554   1.405       .  A
C1553      C1558   1.406       .  A
C1554      C1555   1.398       .  A
C1554      H1563   1.083       .  S
C1555      C1556   1.402       .  A
C1555      H1564   1.083       .  S
C1556      C1562   1.406       .  A
C1556      C1557   1.414       .  A
C1557      C1559   1.402       .  A
C1557      C1558   1.407       .  A
C1558      H1565   1.084       .  S
C1559      C1560   1.399       .  A
C1559      H1566   1.083       .  S
C1560      C1561   1.408       .  A
C1560      H1567   1.083       .  S
C1561      C1562   1.408       .  A
C1562      H1568   1.084       .  S
C1569      C1570   1.404       .  A
C1569      C1574   1.407       .  A
C1570      C1571   1.395       .  A
C1570      H1579   1.084       .  S
C1571      C1572   1.400   1_655  A
C1571      H1580   1.083   1_655  S
C1572      C1578   1.406       .  A
C1572      C1573   1.415       .  A
C1573      C1575   1.406       .  A
C1573      C1574   1.413   1_455  A
C1574      H1581   1.084       .  S
C1575      C1576   1.404       .  A
C1575      H1582   1.083       .  S
C1576      C1577   1.405       .  A
C1576      H1583   1.083       .  S
C1577      C1578   1.404       .  A
C1578      H1584   1.084       .  S
C1585      C1586   1.406       .  A
C1585      C1590   1.409       .  A
C1586      C1587   1.392       .  A
C1586      H1595   1.083       .  S
C1587      C1588   1.399       .  A
C1587      H1596   1.083       .  S
C1588      C1594   1.399       .  A
C1588      C1589   1.413       .  A
C1589      C1591   1.406       .  A
C1589      C1590   1.409       .  A
C1590      H1597   1.083       .  S
C1591      C1592   1.403       .  A
C1591      H1598   1.083       .  S
C1592      C1593   1.405       .  A
C1592      H1599   1.083       .  S
C1593      C1594   1.404       .  A
C1594      H1600   1.084       .  S
C1601      C1602   1.408       .  A
C1601      C1606   1.409       .  A
C1602      C1603   1.394       .  A
C1602      H1611   1.083       .  S
C1603      C1604   1.399       .  A
C1603      H1612   1.084       .  S
C1604      C1610   1.405       .  A
C1604      C1605   1.414       .  A
C1605      C1607   1.404       .  A
C1605      C1606   1.413       .  A
C1606      H1613   1.084       .  S
C1607      C1608   1.403       .  A
C1607      H1614   1.084       .  S
C1608      C1609   1.408       .  A
C1608      H1615   1.082       .  S
C1609      C1610   1.406       .  A
C1610      H1616   1.084       .  S
C1617      C1618   1.406       .  A
C1617      C1622   1.406       .  A
C1618      C1619   1.399       .  A
C1618      H1627   1.083       .  S
C1619      C1620   1.402       .  A
C1619      H1628   1.083       .  S
C1620      C1626   1.410       .  A
C1620      C1621   1.415       .  A
C1621      C1623   1.401       .  A
C1621      C1622   1.409       .  A
C1622      H1629   1.083       .  S
C1623      C1624   1.399       .  A
C1623      H1630   1.083       .  S
C1624      C1625   1.408       .  A
C1624      H1631   1.083       .  S
C1625      C1626   1.408       .  A
C1626      H1632   1.083       .  S
C1633      C1634   1.407       .  A
C1633      C1638   1.407       .  A
C1634      C1635   1.402       .  A
C1634      H1643   1.083       .  S
C1635      C1636   1.404       .  A
C1635      H1644   1.083       .  S
C1636      C1642   1.410   1_556  A
C1636      C1637   1.413       .  A
C1637      C1639   1.399   1_556  A
C1637      C1638   1.402       .  A
C1638      H1645   1.084       .  S
C1639      C1640   1.394       .  A
C1639      H1646   1.083   1_554  S
C1640      C1641   1.409       .  A
C1640      H1647   1.083       .  S
C1641      C1642   1.410       .  A
C1642      H1648   1.083       .  S
C1649      C1650   1.407       .  A
C1649      C1654   1.410       .  A
C1650      C1651   1.397       .  A
C1650      H1659   1.083       .  S
C1651      C1652   1.401       .  A
C1651      H1660   1.084       .  S
C1652      C1658   1.408       .  A
C1652      C1653   1.414       .  A
C1653      C1655   1.405       .  A
C1653      C1654   1.415       .  A
C1654      H1661   1.084       .  S
C1655      C1656   1.404       .  A
C1655      H1662   1.084       .  S
C1656      C1657   1.408       .  A
C1656      H1663   1.082       .  S
C1657      C1658   1.408       .  A
C1658      H1664   1.084       .  S
C1665      C1666   1.404       .  A
C1665      C1670   1.405       .  A
C1666      C1667   1.405       .  A
C1666      H1675   1.083       .  S
C1667      C1668   1.407   1_655  A
C1667      H1676   1.083       .  S
C1668      C1674   1.413       .  A
C1668      C1669   1.414       .  A
C1669      C1671   1.401       .  A
C1669      C1670   1.405   1_455  A
C1670      H1677   1.084       .  S
C1671      C1672   1.396       .  A
C1671      H1678   1.083       .  S
C1672      C1673   1.403       .  A
C1672      H1679   1.084       .  S
C1673      C1674   1.409       .  A
C1674      H1680   1.084       .  S
C1681      C1682   1.407       .  A
C1681      C1686   1.410       .  A
C1682      C1683   1.402       .  A
C1682      H1691   1.083       .  S
C1683      C1684   1.404       .  A
C1683      H1692   1.083       .  S
C1684      C1690   1.410       .  A
C1684      C1685   1.413       .  A
C1685      C1687   1.404       .  A
C1685      C1686   1.410       .  A
C1686      H1693   1.083       .  S
C1687      C1688   1.401       .  A
C1687      H1694   1.083       .  S
C1688      C1689   1.405       .  A
C1688      H1695   1.083       .  S
C1689      C1690   1.408       .  A
C1690      H1696   1.084       .  S
C1697      C1698   1.406       .  A
C1697      C1702   1.405       .  A
C1698      C1699   1.408       .  A
C1698      H1707   1.083       .  S
C1699      C1700   1.408   1_655  A
C1699      H1708   1.083       .  S
C1700      C1706   1.417       .  A
C1700      C1701   1.415   1_455  A
C1701      C1703   1.399   1_655  A
C1701      C1702   1.404       .  A
C1702      H1709   1.085       .  S
C1703      C1704   1.394       .  A
C1703      H1710   1.084       .  S
C1704      C1705   1.403       .  A
C1704      H1711   1.084       .  S
C1705      C1706   1.411       .  A
C1706      H1712   1.084       .  S
C1713      C1714   1.409       .  A
C1713      C1718   1.407       .  A
C1714      C1715   1.407       .  A
C1714      H1723   1.083       .  S
C1715      C1716   1.407       .  A
C1715      H1724   1.083       .  S
C1716      C1722   1.415       .  A
C1716      C1717   1.413       .  A
C1717      C1719   1.397       .  A
C1717      C1718   1.401       .  A
C1718      H1725   1.084       .  S
C1719      C1720   1.391       .  A
C1719      H1726   1.084       .  S
C1720      C1721   1.409       .  A
C1720      H1727   1.083       .  S
C1721      C1722   1.413       .  A
C1722      H1728   1.083       .  S
C1729      C1730   1.406       .  A
C1729      C1734   1.412       .  A
C1730      C1731   1.401       .  A
C1730      H1739   1.082       .  S
C1731      C1732   1.403       .  A
C1731      H1740   1.084       .  S
C1732      C1738   1.411       .  A
C1732      C1733   1.414       .  A
C1733      C1735   1.404       .  A
C1733      C1734   1.410       .  A
C1734      H1741   1.083       .  S
C1735      C1736   1.401       .  A
C1735      H1742   1.084       .  S
C1736      C1737   1.405       .  A
C1736      H1743   1.083       .  S
C1737      C1738   1.408       .  A
C1738      H1744   1.084       .  S
C1745      C1746   1.402       .  A
C1745      C1750   1.409       .  A
C1746      C1747   1.396       .  A
C1746      H1755   1.084       .  S
C1747      C1748   1.401       .  A
C1747      H1756   1.084       .  S
C1748      C1754   1.403       .  A
C1748      C1749   1.414       .  A
C1749      C1751   1.407       .  A
C1749      C1750   1.413       .  A
C1750      H1757   1.084       .  S
C1751      C1752   1.405       .  A
C1751      H1758   1.083       .  S
C1752      C1753   1.404       .  A
C1752      H1759   1.083       .  S
C1753      C1754   1.405       .  A
C1754      H1760   1.085       .  S
C1761      C1762   1.410       .  A
C1761      C1766   1.412       .  A
C1762      C1763   1.402       .  A
C1762      H1771   1.082       .  S
C1763      C1764   1.403       .  A
C1763      H1772   1.083       .  S
C1764      C1770   1.415       .  A
C1764      C1765   1.414       .  A
C1765      C1767   1.403       .  A
C1765      C1766   1.414       .  A
C1766      H1773   1.082       .  S
C1767      C1768   1.402       .  A
C1767      H1774   1.083       .  S
C1768      C1769   1.408       .  A
C1768      H1775   1.083       .  S
C1769      C1770   1.410       .  A
C1770      H1776   1.083       .  S
C1777      C1778   1.404       .  A
C1777      C1782   1.410       .  A
C1778      C1779   1.396       .  A
C1778      H1787   1.084       .  S
C1779      C1780   1.401       .  A
C1779      H1788   1.083       .  S
C1780      C1786   1.404       .  A
C1780      C1781   1.414       .  A
C1781      C1783   1.409       .  A
C1781      C1782   1.416       .  A
C1782      H1789   1.083       .  S
C1783      C1784   1.408       .  A
C1783      H1790   1.083       .  S
C1784      C1785   1.404       .  A
C1784      H1791   1.083       .  S
C1785      C1786   1.405       .  A
C1786      H1792   1.084       .  S
C1793      C1794   1.408       .  A
C1793      C1798   1.406       .  A
C1794      C1795   1.405       .  A
C1794      H1803   1.083       .  S
C1795      C1796   1.405   1_556  A
C1795      H1804   1.084       .  S
C1796      C1802   1.417       .  A
C1796      C1797   1.415   1_554  A
C1797      C1799   1.398   1_556  A
C1797      C1798   1.406       .  A
C1798      H1805   1.085       .  S
C1799      C1800   1.394       .  A
C1799      H1806   1.084       .  S
C1800      C1801   1.407       .  A
C1800      H1807   1.083       .  S
C1801      C1802   1.410       .  A
C1802      H1808   1.084       .  S
C1809      C1810   1.406       .  A
C1809      C1814   1.406       .  A
C1810      C1811   1.408       .  A
C1810      H1819   1.083       .  S
C1811      C1812   1.408       .  A
C1811      H1820   1.083       .  S
C1812      C1818   1.415       .  A
C1812      C1813   1.413       .  A
C1813      C1815   1.399       .  A
C1813      C1814   1.403       .  A
C1814      H1821   1.084       .  S
C1815      C1816   1.394       .  A
C1815      H1822   1.083       .  S
C1816      C1817   1.406       .  A
C1816      H1823   1.082       .  S
C1817      C1818   1.413       .  A
C1818      H1824   1.083       .  S
C1825      C1826   1.405       .  A
C1825      C1830   1.405       .  A
C1826      C1827   1.408   1_565  A
C1826      H1835   1.083       .  S
C1827      C1828   1.408       .  A
C1827      H1836   1.083       .  S
C1828      C1834   1.416       .  A
C1828      C1829   1.414       .  A
C1829      C1831   1.400       .  A
C1829      C1830   1.404   1_545  A
C1830      H1837   1.084       .  S
C1831      C1832   1.394       .  A
C1831      H1838   1.083       .  S
C1832      C1833   1.405       .  A
C1832      H1839   1.084       .  S
C1833      C1834   1.411       .  A
C1834      H1840   1.083       .  S
C1841      C1842   1.408       .  A
C1841      C1846   1.408       .  A
C1842      C1843   1.403       .  A
C1842      H1851   1.083       .  S
C1843      C1844   1.404       .  A
C1843      H1852   1.083       .  S
C1844      C1850   1.413       .  A
C1844      C1845   1.414       .  A
C1845      C1847   1.402       .  A
C1845      C1846   1.409       .  A
C1846      H1853   1.083       .  S
C1847      C1848   1.398       .  A
C1847      H1854   1.083       .  S
C1848      C1849   1.405       .  A
C1848      H1855   1.083       .  S
C1849      C1850   1.410       .  A
C1850      H1856   1.083       .  S
C1857      C1858   1.405       .  A
C1857      C1862   1.404       .  A
C1858      C1859   1.406       .  A
C1858      H1867   1.083       .  S
C1859      C1860   1.407       .  A
C1859      H1868   1.083       .  S
C1860      C1866   1.413   1_545  A
C1860      C1861   1.415       .  A
C1861      C1863   1.399       .  A
C1861      C1862   1.402       .  A
C1862      H1869   1.085       .  S
C1863      C1864   1.393   1_545  A
C1863      H1870   1.083       .  S
C1864      C1865   1.403       .  A
C1864      H1871   1.084       .  S
C1865      C1866   1.409       .  A
C1866      H1872   1.084       .  S
C1873      C1874   1.407       .  A
C1873      C1878   1.414       .  A
C1874      C1875   1.390       .  A
C1874      H1883   1.083       .  S
C1875      C1876   1.397       .  A
C1875      H1884   1.084       .  S
C1876      C1882   1.399       .  A
C1876      C1877   1.413       .  A
C1877      C1879   1.409       .  A
C1877      C1878   1.416       .  A
C1878      H1885   1.083       .  S
C1879      C1880   1.409       .  A
C1879      H1886   1.083       .  S
C1880      C1881   1.407       .  A
C1880      H1887   1.083       .  S
C1881      C1882   1.406       .  A
C1882      H1888   1.084       .  S
C1889      C1890   1.407       .  A
C1889      C1894   1.409       .  A
C1890      C1891   1.398       .  A
C1890      H1899   1.083       .  S
C1891      C1892   1.401       .  A
C1891      H1900   1.083       .  S
C1892      C1898   1.407       .  A
C1892      C1893   1.414       .  A
C1893      C1895   1.403       .  A
C1893      C1894   1.408       .  A
C1894      H1901   1.084       .  S
C1895      C1896   1.399       .  A
C1895      H1902   1.083       .  S
C1896      C1897   1.405       .  A
C1896      H1903   1.083       .  S
C1897      C1898   1.405       .  A
C1898      H1904   1.084       .  S
C1905      C1906   1.405       .  A
C1905      C1910   1.403       .  A
C1906      C1907   1.404       .  A
C1906      H1915   1.083       .  S
C1907      C1908   1.406       .  A
C1907      H1916   1.083       .  S
C1908      C1914   1.414       .  A
C1908      C1909   1.416       .  A
C1909      C1911   1.399       .  A
C1909      C1910   1.403       .  A
C1910      H1917   1.084       .  S
C1911      C1912   1.393       .  A
C1911      H1918   1.083       .  S
C1912      C1913   1.404       .  A
C1912      H1919   1.084       .  S
C1913      C1914   1.408       .  A
C1914      H1920   1.083       .  S
C1921      C1922   1.407       .  A
C1921      C1926   1.407       .  A
C1922      C1923   1.399       .  A
C1922      H1931   1.083       .  S
C1923      C1924   1.402       .  A
C1923      H1932   1.083       .  S
C1924      C1930   1.407       .  A
C1924      C1925   1.415       .  A
C1925      C1927   1.402       .  A
C1925      C1926   1.406       .  A
C1926      H1933   1.084       .  S
C1927      C1928   1.398       .  A
C1927      H1934   1.083       .  S
C1928      C1929   1.404       .  A
C1928      H1935   1.083       .  S
C1929      C1930   1.405       .  A
C1930      H1936   1.084       .  S
C1937      C1938   1.403       .  A
C1937      C1942   1.404       .  A
C1938      C1939   1.403       .  A
C1938      H1947   1.083       .  S
C1939      C1940   1.406       .  A
C1939      H1948   1.083       .  S
C1940      C1946   1.411       .  A
C1940      C1941   1.415       .  A
C1941      C1943   1.401       .  A
C1941      C1942   1.404       .  A
C1942      H1949   1.085       .  S
C1943      C1944   1.397       .  A
C1943      H1950   1.084       .  S
C1944      C1945   1.403       .  A
C1944      H1951   1.084       .  S
C1945      C1946   1.407       .  A
C1946      H1952   1.084       .  S
C1953      C1954   1.407       .  A
C1953      C1958   1.411       .  A
C1954      C1955   1.392       .  A
C1954      H1963   1.083       .  S
C1955      C1956   1.398   1_556  A
C1955      H1964   1.084   1_556  S
C1956      C1962   1.402       .  A
C1956      C1957   1.414       .  A
C1957      C1959   1.406       .  A
C1957      C1958   1.413   1_554  A
C1958      H1965   1.084       .  S
C1959      C1960   1.405       .  A
C1959      H1966   1.083       .  S
C1960      C1961   1.407       .  A
C1960      H1967   1.083       .  S
C1961      C1962   1.405       .  A
C1962      H1968   1.084       .  S
C1969      C1970   1.406       .  A
C1969      C1974   1.409       .  A
C1970      C1971   1.399       .  A
C1970      H1979   1.083       .  S
C1971      C1972   1.403       .  A
C1971      H1980   1.083       .  S
C1972      C1978   1.407       .  A
C1972      C1973   1.414       .  A
C1973      C1975   1.404       .  A
C1973      C1974   1.408       .  A
C1974      H1981   1.083       .  S
C1975      C1976   1.400       .  A
C1975      H1982   1.083       .  S
C1976      C1977   1.405       .  A
C1976      H1983   1.083       .  S
C1977      C1978   1.407       .  A
C1978      H1984   1.083       .  S
