geometry optimzed in LAMMPS
_audit_creation_date              2020-12-01 
_audit_creation_method            'lammps2cif' 
_symmetry_space_group_name_H-M    'P1' 
_symmetry_Int_Tables_number       1 
_symmetry_cell_setting            triclinic 
loop_ 
_symmetry_equiv_pos_as_xyz 
  x,y,z 
_cell_length_a                    38.45621507 
_cell_length_b                    38.461799000008476 
_cell_length_c                    42.261247431215416 
_cell_angle_alpha                 89.99513661525766 
_cell_angle_beta                  90.00094657263408 
_cell_angle_gamma                 120.0181320636172 
loop_ 
_atom_site_label 
_atom_site_type_symbol 
_atom_site_fract_x 
_atom_site_fract_y 
_atom_site_fract_z 
_atom_site_charge 
Zn1        Zn  0.08364529  0.25010510  0.63879769     1.49700
Zn2        Zn  0.11126072  0.22228924  0.57659502     1.49400
Zn3        Zn  0.16677684  0.25011032  0.63879579     1.49100
Zn4        Zn  0.08359763  0.16688881  0.63880922     1.49500
O5          O  0.11131887  0.22234245  0.62290926    -1.81000
O6          O  0.06315789  0.27045071  0.60363136    -0.71700
O7          O  0.16961720  0.25146570  0.56020970    -0.71500
O8          O  0.17712649  0.29609043  0.66688533    -0.71000
O9          O  0.08206776  0.25145340  0.56022960    -0.71700
O10         O  0.11930197  0.29607313  0.66688941    -0.71300
O11         O  0.20756766  0.27044284  0.60360005    -0.71900
O12         O  0.11924246  0.15666353  0.66697163    -0.71200
O13         O  0.08206633  0.16391319  0.56024321    -0.72000
O14         O  0.17704545  0.21452859  0.66698276    -0.71400
O15         O  0.06315408  0.12600576  0.60365140    -0.71900
O16         O  0.03770861  0.15664239  0.66695746    -0.71800
O17         O  0.03779522  0.21450185  0.66697941    -0.71600
C18         C  0.06484180  0.26870415  0.57363836     0.80200
C19         C  0.20411182  0.26870638  0.57360828     0.80700
C20         C  0.15512752  0.30990404  0.67639044     0.79700
C21         C  0.15504604  0.17871564  0.67650680     0.80100
C22         C  0.06484488  0.12942997  0.57365547     0.81200
C23         C  0.02396349  0.17868654  0.67649332     0.80200
C24         C  0.22249651  0.11141723  0.72365868     0.48600
H25         H  0.22251565  0.11147168  0.69732966    -0.00500
C26         C  0.22246111  0.11130179  0.78525836     0.48600
H27         H  0.22244613  0.11124780  0.81158730    -0.00500
C28         C  0.20153926  0.06949807  0.73822526    -0.14200
C29         C  0.26438180  0.13233405  0.73830027    -0.13900
C30         C  0.20154351  0.13232646  0.73831963    -0.14300
C31         C  0.20152061  0.06944100  0.77057915    -0.14300
C32         C  0.26436492  0.13228274  0.77065285    -0.13800
C33         C  0.20153104  0.13227410  0.77067399    -0.14200
Zn34       Zn  0.16687426  0.25026868  0.87011369     1.49700
Zn35       Zn  0.08370366  0.16712799  0.87012228     1.49400
Zn36       Zn  0.11140642  0.22261173  0.93232444     1.49100
Zn37       Zn  0.08366667  0.25027004  0.87011869     1.49500
O38         O  0.11141404  0.22257462  0.88600960    -1.81000
O39         O  0.17718804  0.21462268  0.84201853    -0.71700
O40         O  0.06328854  0.12632376  0.90530731    -0.71500
O41         O  0.16977443  0.25180163  0.94868789    -0.71000
O42         O  0.11932910  0.15682493  0.84200117    -0.71700
O43         O  0.20770922  0.27075263  0.90528992    -0.71300
O44         O  0.08223298  0.16425599  0.94870141    -0.71900
O45         O  0.06328107  0.27075193  0.90528283    -0.71200
O46         O  0.03779763  0.15682530  0.84197604    -0.72000
O47         O  0.08222820  0.25179803  0.94868946    -0.71400
O48         O  0.03773090  0.21460462  0.84200058    -0.71900
O49         O  0.11929685  0.29611083  0.84192872    -0.71800
O50         O  0.17711920  0.29610493  0.84191809    -0.71600
C51         C  0.15515976  0.17881150  0.83250231     0.80200
C52         C  0.06500338  0.12976930  0.93529926     0.80700
C53         C  0.20426600  0.26904428  0.93528327     0.79700
C54         C  0.06499788  0.26904522  0.93527873     0.80100
C55         C  0.02396020  0.17880315  0.83247254     0.81200
C56         C  0.15509911  0.30988279  0.83238807     0.80200
Zn57       Zn  0.25010406  0.16657639  0.37018456     1.49700
Zn58       Zn  0.22241378  0.11118724  0.43261933     1.49400
Zn59       Zn  0.16710488  0.08361369  0.37016855     1.49100
Zn60       Zn  0.25012394  0.08364529  0.37015559     1.49500
O61         O  0.22243280  0.11125226  0.38615819    -1.81000
O62         O  0.27032597  0.20704239  0.40547715    -0.71700
O63         O  0.16418656  0.08206147  0.44907909    -0.71500
O64         O  0.15671985  0.11920336  0.34205559    -0.71000
O65         O  0.25151612  0.16938464  0.44910368    -0.71700
O66         O  0.21456460  0.17698907  0.34204896    -0.71300
O67         O  0.12655799  0.06328476  0.40544100    -0.71900
O68         O  0.21457979  0.03777775  0.34195158    -0.71200
O69         O  0.25151313  0.08206583  0.44906344    -0.72000
O70         O  0.15675013  0.03773496  0.34196635    -0.71400
O71         O  0.27033680  0.06329824  0.40541384    -0.71900
O72         O  0.29610830  0.11924907  0.34203419    -0.71800
O73         O  0.29607666  0.17702760  0.34203754    -0.71600
C74         C  0.26863754  0.20365579  0.43545048     0.80200
C75         C  0.12991783  0.06493930  0.43541791     0.80700
C76         C  0.17874840  0.15500793  0.33252748     0.79700
C77         C  0.17877841  0.02398252  0.33240961     0.80100
C78         C  0.26864081  0.06494250  0.43539232     0.81200
C79         C  0.30990001  0.15505249  0.33250614     0.80200
C80         C  0.11141475  0.22242121  0.22367018     0.48600
H81         H  0.11140293  0.22237600  0.19734181    -0.00500
C82         C  0.11143627  0.22252202  0.28526964     0.48600
H83         H  0.11144788  0.22256839  0.31159806    -0.00500
C84         C  0.06951520  0.20149551  0.23830690    -0.14200
C85         C  0.13236702  0.20150178  0.23832879    -0.13900
C86         C  0.13237870  0.26434479  0.23824066    -0.14300
C87         C  0.06952488  0.20154421  0.27066321    -0.14300
C88         C  0.13237263  0.20154900  0.27068408    -0.13800
C89         C  0.13238661  0.26439554  0.27059591    -0.14200
Zn90       Zn  0.25022155  0.16676557  0.13877890     1.49700
Zn91       Zn  0.16722517  0.08375549  0.13878178     1.49400
Zn92       Zn  0.22253537  0.11149001  0.07631707     1.49100
Zn93       Zn  0.25019734  0.08378235  0.13873963     1.49500
O94         O  0.22254587  0.11145107  0.12277874    -1.81000
O95         O  0.21466721  0.17710847  0.16696482    -0.71700
O96         O  0.12668208  0.06355592  0.10351183    -0.71500
O97         O  0.25163202  0.16971963  0.05986854    -0.71000
O98         O  0.15687021  0.11927073  0.16698951    -0.71700
O99         O  0.27047160  0.20732871  0.10351231    -0.71300
O100        O  0.16431048  0.08239231  0.05987078    -0.71900
O101        O  0.27047151  0.06358537  0.10344594    -0.71200
O102        O  0.15682448  0.03776242  0.16688462    -0.72000
O103        O  0.25162937  0.08239141  0.05982099    -0.71400
O104        O  0.21463853  0.03778447  0.16685631    -0.71900
O105        O  0.29612222  0.11930673  0.16691351    -0.71800
O106        O  0.29616556  0.17712639  0.16692494    -0.71600
C107        C  0.17887308  0.15507408  0.17652258     0.80200
C108        C  0.13004303  0.06526095  0.07353477     0.80700
C109        C  0.26876738  0.20398040  0.07353395     0.79700
C110        C  0.26877212  0.06526795  0.07347192     0.80100
C111        C  0.17882921  0.02395827  0.17639152     0.81200
C112        C  0.30993413  0.15510273  0.17645851     0.80200
Zn113      Zn  0.02825774  0.30578490  0.02062406     1.49700
Zn114      Zn  0.00031914  0.00039940  0.95820102     1.49400
Zn115      Zn  0.27772333  0.30576631  0.02063188     1.49100
Zn116      Zn  0.02827016  0.05630387  0.02063339     1.49500
O117        O  0.00030677  0.00039656  0.00485874    -1.81000
O118        O  0.04827794  0.28577936  0.98479746    -0.71700
O119        O  0.27560247  0.30471776  0.94145568    -0.71500
O120        O  0.26610271  0.25660222  0.04665673    -0.71000
O121        O  0.02934313  0.30471705  0.94144387    -0.71700
O122        O  0.32403022  0.25661962  0.04663474    -0.71300
O123        O  0.23770451  0.28575219  0.98480394    -0.71900
O124        O  0.32404572  0.06792181  0.04660028    -0.71200
O125        O  0.02934275  0.05844573  0.94146742    -0.72000
O126        O  0.26610955  0.00999781  0.04659933    -0.71400
O127        O  0.04830042  0.09632860  0.98481719    -0.71900
O128        O  0.07742194  0.06792181  0.04665982    -0.71800
O129        O  0.07741986  0.01001028  0.04663069    -0.71600
C130        C  0.04657225  0.28748666  0.95481717     0.80200
C131        C  0.24113098  0.28747742  0.95482572     0.80700
C132        C  0.28719195  0.24085629  0.05445412     0.79700
C133        C  0.28719804  0.04683976  0.05439124     0.80100
C134        C  0.04658011  0.09290863  0.95483983     0.81200
C135        C  0.09317301  0.04683911  0.05445406     0.80200
Zn136      Zn  0.02811561  0.30544454  0.48831122     1.49700
Zn137      Zn  0.02811662  0.05596272  0.48830209     1.49400
Zn138      Zn  0.27758369  0.30543736  0.48827418     1.49100
Zn139      Zn  0.00015931  0.33338004  0.55072261     1.49500
O140        O  0.00015788  0.33338939  0.50406637    -1.81000
O141        O  0.07728224  0.00965710  0.46230020    -0.71700
O142        O  0.32389938  0.06757552  0.46229184    -0.71500
O143        O  0.26597392  0.25626585  0.46230532    -0.71000
O144        O  0.07729260  0.06757350  0.46230632    -0.71700
O145        O  0.32389653  0.25627251  0.46233855    -0.71300
O146        O  0.26597296  0.00964381  0.46224926    -0.71900
O147        O  0.27543939  0.30434920  0.56743997    -0.71200
O148        O  0.04812166  0.09597930  0.52413634    -0.72000
O149        O  0.23754969  0.28542596  0.52408768    -0.70400
O150        O  0.02917983  0.05809090  0.56748698    -0.71900
O151        O  0.02916535  0.30434764  0.56747466    -0.71800
O152        O  0.04812375  0.28543336  0.52412522    -0.71600
C153        C  0.09304404  0.04649571  0.45449859     0.80200
C154        C  0.28706341  0.04649088  0.45446474     0.80700
C155        C  0.28705797  0.24051086  0.45452953     0.79700
C156        C  0.24097232  0.28712722  0.55406556     0.80100
C157        C  0.04641082  0.09255906  0.55411620     0.81200
C158        C  0.04640267  0.28712733  0.55410250     0.80200
C159        C  0.03446997  0.18398692  0.21862891    -0.10200
C160        C  0.00790888  0.17073291  0.19945034    -0.11700
C161        C  0.14988208  0.29935601  0.21851641    -0.10200
C162        C  0.16316139  0.32593024  0.19934499    -0.11700
C163        C  0.16320743  0.17071007  0.19951322    -0.10200
C164        C  0.14990174  0.18397979  0.21867295    -0.11700
C165        C  0.16314123  0.32602984  0.30940722    -0.10200
C166        C  0.14988504  0.29946098  0.29024158    -0.11700
C167        C  0.00791223  0.17074835  0.30953594    -0.10200
C168        C  0.03448744  0.18404159  0.29036279    -0.11700
C169        C  0.16310269  0.17070383  0.30956748    -0.10200
C170        C  0.14985375  0.18402128  0.29039713    -0.11700
C171        C  0.32595054  0.16310647  0.80951964    -0.10200
C172        C  0.29938683  0.14979912  0.79034829    -0.11700
C173        C  0.18401465  0.03438658  0.79022265    -0.10200
C174        C  0.17074790  0.00783471  0.80939708    -0.11700
C175        C  0.18406165  0.14980202  0.79038961    -0.10200
C176        C  0.17081983  0.16311552  0.80956365    -0.11700
C177        C  0.29942037  0.14982025  0.71863194    -0.10200
C178        C  0.32598145  0.16305523  0.69946232    -0.11700
C179        C  0.18407086  0.03450314  0.71849714    -0.10200
C180        C  0.17081395  0.00794314  0.69932182    -0.11700
C181        C  0.18401971  0.14984197  0.71866146    -0.10200
C182        C  0.17072183  0.16309384  0.69948703    -0.11700
Zn183      Zn  0.08364522  0.58343843  0.63879769     1.49700
Zn184      Zn  0.11126070  0.55562250  0.57659505     1.49400
Zn185      Zn  0.16677679  0.58344357  0.63879577     1.49100
Zn186      Zn  0.08359764  0.50022203  0.63880923     1.49500
O187        O  0.11131881  0.55567572  0.62290928    -1.81000
O188        O  0.06315785  0.60378398  0.60363135    -0.71700
O189        O  0.16961720  0.58479901  0.56020970    -0.71500
O190        O  0.17712647  0.62942377  0.66688529    -0.71000
O191        O  0.08206771  0.58478668  0.56022966    -0.71700
O192        O  0.11930186  0.62940643  0.66688940    -0.71300
O193        O  0.20756764  0.60377601  0.60360004    -0.71900
O194        O  0.11924248  0.48999676  0.66697162    -0.71200
O195        O  0.08206640  0.49724648  0.56024323    -0.72000
O196        O  0.17704546  0.54786183  0.66698278    -0.71400
O197        O  0.06315411  0.45933902  0.60365139    -0.71900
O198        O  0.03770865  0.48997573  0.66695748    -0.71800
O199        O  0.03779519  0.54783509  0.66697941    -0.71600
C200        C  0.06484175  0.60203743  0.57363838     0.80200
C201        C  0.20411182  0.60203968  0.57360828     0.80700
C202        C  0.15512748  0.64323738  0.67639040     0.79700
C203        C  0.15504603  0.51204890  0.67650683     0.80100
C204        C  0.06484494  0.46276325  0.57365546     0.81200
C205        C  0.02396348  0.51201980  0.67649334     0.80200
C206        C  0.22249647  0.44475056  0.72365870     0.48600
H207        H  0.22251569  0.44480512  0.69732969    -0.00500
C208        C  0.22246117  0.44463514  0.78525839     0.48600
H209        H  0.22244615  0.44458115  0.81158734    -0.00500
C210        C  0.20153924  0.40283139  0.73822528    -0.14200
C211        C  0.26438177  0.46566736  0.73830025    -0.13900
C212        C  0.20154350  0.46565978  0.73831969    -0.14300
C213        C  0.20152062  0.40277435  0.77057917    -0.14300
C214        C  0.26436495  0.46561609  0.77065283    -0.13800
C215        C  0.20153107  0.46560742  0.77067404    -0.14200
Zn216      Zn  0.16687429  0.58360196  0.87011368     1.49700
Zn217      Zn  0.08370376  0.50046138  0.87012226     1.49400
Zn218      Zn  0.11140650  0.55594512  0.93232446     1.49100
Zn219      Zn  0.08366666  0.58360330  0.87011870     1.49500
O220        O  0.11141408  0.55590794  0.88600961    -1.81000
O221        O  0.17718812  0.54795608  0.84201849    -0.71700
O222        O  0.06328866  0.45965719  0.90530732    -0.71500
O223        O  0.16977443  0.58513496  0.94868791    -0.71000
O224        O  0.11932919  0.49015834  0.84200117    -0.71700
O225        O  0.20770922  0.60408600  0.90528993    -0.71300
O226        O  0.08223307  0.49758937  0.94870142    -0.71900
O227        O  0.06328102  0.60408521  0.90528282    -0.71200
O228        O  0.03779772  0.49015868  0.84197601    -0.72000
O229        O  0.08222824  0.58513146  0.94868943    -0.71400
O230        O  0.03773094  0.54793799  0.84200056    -0.71900
O231        O  0.11929684  0.62944405  0.84192871    -0.71800
O232        O  0.17711911  0.62943816  0.84191806    -0.71600
C233        C  0.15515982  0.51214491  0.83250228     0.80200
C234        C  0.06500350  0.46310270  0.93529927     0.80700
C235        C  0.20426600  0.60237768  0.93528329     0.79700
C236        C  0.06499786  0.60237858  0.93527871     0.80100
C237        C  0.02396026  0.51213652  0.83247252     0.81200
C238        C  0.15509906  0.64321600  0.83238803     0.80200
Zn239      Zn  0.25010403  0.49990973  0.37018453     1.49700
Zn240      Zn  0.22241382  0.44452059  0.43261931     1.49400
Zn241      Zn  0.16710486  0.41694697  0.37016854     1.49100
Zn242      Zn  0.25012393  0.41697853  0.37015557     1.49500
O243        O  0.22243281  0.44458557  0.38615817    -1.81000
O244        O  0.27032582  0.54037577  0.40547714    -0.71700
O245        O  0.16418653  0.41539475  0.44907905    -0.71500
O246        O  0.15671983  0.45253671  0.34205558    -0.71000
O247        O  0.25151609  0.50271803  0.44910366    -0.71700
O248        O  0.21456460  0.51032238  0.34204891    -0.71300
O249        O  0.12655802  0.39661805  0.40544100    -0.71900
O250        O  0.21457978  0.37111097  0.34195163    -0.71200
O251        O  0.25151312  0.41539909  0.44906350    -0.72000
O252        O  0.15675011  0.37106817  0.34196637    -0.71400
O253        O  0.27033678  0.39663150  0.40541383    -0.71900
O254        O  0.29610835  0.45258239  0.34203418    -0.71800
O255        O  0.29607662  0.51036083  0.34203755    -0.71600
C256        C  0.26863741  0.53698917  0.43545047     0.80200
C257        C  0.12991783  0.39827264  0.43541789     0.80700
C258        C  0.17874840  0.48834126  0.33252744     0.79700
C259        C  0.17877839  0.35731572  0.33240965     0.80100
C260        C  0.26864085  0.39827581  0.43539234     0.81200
C261        C  0.30990000  0.48838577  0.33250611     0.80200
C262        C  0.11141477  0.55575464  0.22367019     0.48600
H263        H  0.11140299  0.55570933  0.19734184    -0.00500
C264        C  0.11143627  0.55585541  0.28526967     0.48600
H265        H  0.11144797  0.55590170  0.31159807    -0.00500
C266        C  0.06951524  0.53482893  0.23830689    -0.14200
C267        C  0.13236707  0.53483525  0.23832880    -0.13900
C268        C  0.13237875  0.59767820  0.23824067    -0.14300
C269        C  0.06952490  0.53487759  0.27066319    -0.14300
C270        C  0.13237266  0.53488246  0.27068410    -0.13800
C271        C  0.13238661  0.59772894  0.27059594    -0.14200
Zn272      Zn  0.25022154  0.50009883  0.13877890     1.49700
Zn273      Zn  0.16722519  0.41708880  0.13878180     1.49400
Zn274      Zn  0.22253536  0.44482328  0.07631705     1.49100
Zn275      Zn  0.25019740  0.41711569  0.13873965     1.49500
O276        O  0.22254590  0.44478437  0.12277874    -1.81000
O277        O  0.21466713  0.51044167  0.16696482    -0.71700
O278        O  0.12668212  0.39688926  0.10351185    -0.71500
O279        O  0.25163187  0.50305287  0.05986851    -0.71000
O280        O  0.15687020  0.45260407  0.16698954    -0.71700
O281        O  0.27047148  0.54066196  0.10351229    -0.71300
O282        O  0.16431050  0.41572555  0.05987078    -0.71900
O283        O  0.27047141  0.39691861  0.10344590    -0.71200
O284        O  0.15682452  0.37109575  0.16688459    -0.72000
O285        O  0.25162937  0.41572477  0.05982092    -0.71400
O286        O  0.21463849  0.37111775  0.16685634    -0.71900
O287        O  0.29612237  0.45264011  0.16691351    -0.71800
O288        O  0.29616555  0.51045964  0.16692493    -0.71600
C289        C  0.17887305  0.48840737  0.17652260     0.80200
C290        C  0.13004306  0.39859422  0.07353478     0.80700
C291        C  0.26876732  0.53731366  0.07353392     0.79700
C292        C  0.26877209  0.39860128  0.07347187     0.80100
C293        C  0.17882920  0.35729158  0.17639154     0.81200
C294        C  0.30993419  0.48843607  0.17645853     0.80200
Zn295      Zn  0.02825783  0.63911826  0.02062409     1.49700
Zn296      Zn  0.00031910  0.33373264  0.95820103     1.49400
Zn297      Zn  0.27772325  0.63909964  0.02063193     1.49100
Zn298      Zn  0.02827024  0.38963725  0.02063340     1.49500
O299        O  0.00030674  0.33372986  0.00485875    -1.81000
O300        O  0.04827803  0.61911281  0.98479746    -0.71700
O301        O  0.27560250  0.63805113  0.94145571    -0.71500
O302        O  0.26610259  0.58993558  0.04665674    -0.71000
O303        O  0.02934314  0.63805046  0.94144390    -0.71700
O304        O  0.32403013  0.58995284  0.04663471    -0.71300
O305        O  0.23770445  0.61908565  0.98480398    -0.71900
O306        O  0.32404567  0.40125519  0.04660022    -0.71200
O307        O  0.02934286  0.39177911  0.94146744    -0.72000
O308        O  0.26610963  0.34333116  0.04659929    -0.71400
O309        O  0.04830053  0.42966200  0.98481720    -0.71900
O310        O  0.07742198  0.40125523  0.04665987    -0.71800
O311        O  0.07741989  0.34334366  0.04663066    -0.71600
C312        C  0.04657231  0.62082009  0.95481718     0.80200
C313        C  0.24113098  0.62081077  0.95482574     0.80700
C314        C  0.28719185  0.57418960  0.05445411     0.79700
C315        C  0.28719804  0.38017311  0.05439121     0.80100
C316        C  0.04658024  0.42624202  0.95483984     0.81200
C317        C  0.09317303  0.38017248  0.05445408     0.80200
Zn318      Zn  0.02811563  0.63877784  0.48831125     1.49700
Zn319      Zn  0.02811656  0.38929592  0.48830209     1.49400
Zn320      Zn  0.27758372  0.63877075  0.48827420     1.49100
Zn321      Zn  0.00015934  0.66671333  0.55072261     1.49500
O322        O  0.00015796  0.66672273  0.50406636    -1.81000
O323        O  0.07728225  0.34299034  0.46230018    -0.71700
O324        O  0.32389937  0.40090872  0.46229175    -0.71500
O325        O  0.26597394  0.58959929  0.46230529    -0.71000
O326        O  0.07729258  0.40090671  0.46230627    -0.71700
O327        O  0.32389637  0.58960576  0.46233859    -0.71300
O328        O  0.26597303  0.34297710  0.46224931    -0.71900
O329        O  0.27543936  0.63768246  0.56743994    -0.71200
O330        O  0.04812174  0.42931262  0.52413631    -0.72000
O331        O  0.23754971  0.61875926  0.52408767    -0.70400
O332        O  0.02917983  0.39142422  0.56748695    -0.71900
O333        O  0.02916539  0.63768094  0.56747466    -0.71800
O334        O  0.04812381  0.61876669  0.52412521    -0.71600
C335        C  0.09304406  0.37982897  0.45449860     0.80200
C336        C  0.28706340  0.37982415  0.45446476     0.80700
C337        C  0.28705787  0.57384418  0.45452954     0.79700
C338        C  0.24097231  0.62046043  0.55406555     0.80100
C339        C  0.04641088  0.42589237  0.55411617     0.81200
C340        C  0.04640265  0.62046059  0.55410250     0.80200
C341        C  0.03447003  0.51732035  0.21862888    -0.10200
C342        C  0.00790894  0.50406634  0.19945031    -0.11700
C343        C  0.14988217  0.63268943  0.21851645    -0.10200
C344        C  0.16316151  0.65926363  0.19934501    -0.11700
C345        C  0.16320743  0.50404339  0.19951321    -0.10200
C346        C  0.14990179  0.51731317  0.21867294    -0.11700
C347        C  0.16314134  0.65936328  0.30940723    -0.10200
C348        C  0.14988511  0.63279440  0.29024160    -0.11700
C349        C  0.00791225  0.50408165  0.30953590    -0.10200
C350        C  0.03448746  0.51737490  0.29036276    -0.11700
C351        C  0.16310268  0.50403717  0.30956748    -0.10200
C352        C  0.14985381  0.51735471  0.29039713    -0.11700
C353        C  0.32595056  0.49643979  0.80951960    -0.10200
C354        C  0.29938685  0.48313247  0.79034826    -0.11700
C355        C  0.18401469  0.36771994  0.79022266    -0.10200
C356        C  0.17074793  0.34116810  0.80939711    -0.11700
C357        C  0.18406171  0.48313538  0.79038962    -0.10200
C358        C  0.17081988  0.49644889  0.80956364    -0.11700
C359        C  0.29942030  0.48315349  0.71863189    -0.10200
C360        C  0.32598138  0.49638846  0.69946228    -0.11700
C361        C  0.18407088  0.36783647  0.71849716    -0.10200
C362        C  0.17081403  0.34127649  0.69932182    -0.11700
C363        C  0.18401968  0.48317530  0.71866154    -0.10200
C364        C  0.17072185  0.49642716  0.69948706    -0.11700
Zn365      Zn  0.08364521  0.91677173  0.63879767     1.49700
Zn366      Zn  0.11126070  0.88895590  0.57659501     1.49400
Zn367      Zn  0.16677688  0.91677697  0.63879577     1.49100
Zn368      Zn  0.08359771  0.83355547  0.63880914     1.49500
O369        O  0.11131890  0.88900913  0.62290923    -1.81000
O370        O  0.06315780  0.93711733  0.60363135    -0.71700
O371        O  0.16961726  0.91813245  0.56020973    -0.71500
O372        O  0.17712638  0.96275704  0.66688532    -0.71000
O373        O  0.08206778  0.91812010  0.56022963    -0.71700
O374        O  0.11930187  0.96273976  0.66688942    -0.71300
O375        O  0.20756774  0.93710946  0.60360006    -0.71900
O376        O  0.11924246  0.82333019  0.66697159    -0.71200
O377        O  0.08206636  0.83057982  0.56024319    -0.72000
O378        O  0.17704555  0.88119524  0.66698278    -0.71400
O379        O  0.06315417  0.79267237  0.60365138    -0.71900
O380        O  0.03770877  0.82330916  0.66695743    -0.71800
O381        O  0.03779516  0.88116847  0.66697939    -0.71600
C382        C  0.06484175  0.93537079  0.57363837     0.80200
C383        C  0.20411188  0.93537305  0.57360830     0.80700
C384        C  0.15512743  0.97657067  0.67639044     0.79700
C385        C  0.15504604  0.84538230  0.67650680     0.80100
C386        C  0.06484492  0.79609659  0.57365544     0.81200
C387        C  0.02396352  0.84535318  0.67649329     0.80200
C388        C  0.22249648  0.77808386  0.72365871     0.48600
H389        H  0.22251557  0.77813837  0.69732969    -0.00500
C390        C  0.22246114  0.77796850  0.78525839     0.48600
H391        H  0.22244616  0.77791445  0.81158733    -0.00500
C392        C  0.20153924  0.73616472  0.73822528    -0.14200
C393        C  0.26438177  0.79900069  0.73830029    -0.13900
C394        C  0.20154354  0.79899315  0.73831966    -0.14300
C395        C  0.20152057  0.73610768  0.77057918    -0.14300
C396        C  0.26436493  0.79894941  0.77065287    -0.13800
C397        C  0.20153103  0.79894076  0.77067401    -0.14200
Zn398      Zn  0.16687432  0.91693534  0.87011369     1.49700
Zn399      Zn  0.08370370  0.83379470  0.87012227     1.49400
Zn400      Zn  0.11140654  0.88927853  0.93232443     1.49100
Zn401      Zn  0.08366665  0.91693671  0.87011870     1.49500
O402        O  0.11141409  0.88924132  0.88600958    -1.81000
O403        O  0.17718805  0.88128930  0.84201852    -0.71700
O404        O  0.06328857  0.79299055  0.90530736    -0.71500
O405        O  0.16977450  0.91846841  0.94868792    -0.71000
O406        O  0.11932914  0.82349166  0.84200115    -0.71700
O407        O  0.20770930  0.93741942  0.90528992    -0.71300
O408        O  0.08223315  0.83092278  0.94870142    -0.71900
O409        O  0.06328099  0.93741857  0.90528282    -0.71200
O410        O  0.03779766  0.82349208  0.84197603    -0.72000
O411        O  0.08222821  0.91846478  0.94868946    -0.71400
O412        O  0.03773092  0.88127129  0.84200057    -0.71900
O413        O  0.11929680  0.96277746  0.84192874    -0.71800
O414        O  0.17711914  0.96277156  0.84191806    -0.71600
C415        C  0.15515977  0.84547817  0.83250228     0.80200
C416        C  0.06500347  0.79643609  0.93529931     0.80700
C417        C  0.20426607  0.93571106  0.93528328     0.79700
C418        C  0.06499788  0.93571194  0.93527872     0.80100
C419        C  0.02396021  0.84546987  0.83247253     0.81200
C420        C  0.15509905  0.97654941  0.83238805     0.80200
Zn421      Zn  0.25010404  0.83324304  0.37018458     1.49700
Zn422      Zn  0.22241381  0.77785387  0.43261934     1.49400
Zn423      Zn  0.16710492  0.75028034  0.37016855     1.49100
Zn424      Zn  0.25012393  0.75031193  0.37015559     1.49500
O425        O  0.22243280  0.77791890  0.38615820    -1.81000
O426        O  0.27032582  0.87370902  0.40547717    -0.71700
O427        O  0.16418654  0.74872809  0.44907907    -0.71500
O428        O  0.15671988  0.78587003  0.34205558    -0.71000
O429        O  0.25151610  0.83605132  0.44910370    -0.71700
O430        O  0.21456468  0.84365576  0.34204896    -0.71300
O431        O  0.12655800  0.72995139  0.40544097    -0.71900
O432        O  0.21457989  0.70444440  0.34195162    -0.71200
O433        O  0.25151309  0.74873243  0.44906348    -0.72000
O434        O  0.15675021  0.70440158  0.34196634    -0.71400
O435        O  0.27033682  0.72996489  0.40541386    -0.71900
O436        O  0.29610827  0.78591584  0.34203419    -0.71800
O437        O  0.29607660  0.84369428  0.34203753    -0.71600
C438        C  0.26863743  0.87032245  0.43545050     0.80200
C439        C  0.12991783  0.73160594  0.43541788     0.80700
C440        C  0.17874846  0.82167463  0.33252749     0.79700
C441        C  0.17877851  0.69064915  0.33240963     0.80100
C442        C  0.26864082  0.73160913  0.43539234     0.81200
C443        C  0.30989995  0.82171921  0.33250611     0.80200
C444        C  0.11141477  0.88908791  0.22367020     0.48600
H445        H  0.11140310  0.88904275  0.19734182    -0.00500
C446        C  0.11143635  0.88918876  0.28526964     0.48600
H447        H  0.11144805  0.88923511  0.31159812    -0.00500
C448        C  0.06951521  0.86816220  0.23830690    -0.14200
C449        C  0.13236711  0.86816855  0.23832882    -0.13900
C450        C  0.13237874  0.93101148  0.23824061    -0.14300
C451        C  0.06952493  0.86821094  0.27066321    -0.14300
C452        C  0.13237272  0.86821579  0.27068412    -0.13800
C453        C  0.13238665  0.93106228  0.27059588    -0.14200
Zn454      Zn  0.25022150  0.83343217  0.13877889     1.49700
Zn455      Zn  0.16722521  0.75042210  0.13878180     1.49400
Zn456      Zn  0.22253535  0.77815667  0.07631707     1.49100
Zn457      Zn  0.25019742  0.75044901  0.13873965     1.49500
O458        O  0.22254589  0.77811770  0.12277874    -1.81000
O459        O  0.21466717  0.84377508  0.16696480    -0.71700
O460        O  0.12668217  0.73022253  0.10351185    -0.71500
O461        O  0.25163196  0.83638626  0.05986854    -0.71000
O462        O  0.15687017  0.78593733  0.16698954    -0.71700
O463        O  0.27047154  0.87399536  0.10351230    -0.71300
O464        O  0.16431047  0.74905901  0.05987078    -0.71900
O465        O  0.27047150  0.73025199  0.10344592    -0.71200
O466        O  0.15682461  0.70442909  0.16688461    -0.72000
O467        O  0.25162930  0.74905804  0.05982100    -0.71400
O468        O  0.21463857  0.70445109  0.16685635    -0.71900
O469        O  0.29612235  0.78597340  0.16691347    -0.71800
O470        O  0.29616551  0.84379300  0.16692496    -0.71600
C471        C  0.17887306  0.82174069  0.17652260     0.80200
C472        C  0.13004306  0.73192761  0.07353478     0.80700
C473        C  0.26876737  0.87064706  0.07353394     0.79700
C474        C  0.26877207  0.73193459  0.07347191     0.80100
C475        C  0.17882927  0.69062490  0.17639153     0.81200
C476        C  0.30993414  0.82176938  0.17645852     0.80200
Zn477      Zn  0.02825773  0.97245156  0.02062408     1.49700
Zn478      Zn  0.00031913  0.66706609  0.95820111     1.49400
Zn479      Zn  0.27772333  0.97243304  0.02063189     1.49100
Zn480      Zn  0.02827022  0.72297053  0.02063341     1.49500
O481        O  0.00030678  0.66706320  0.00485880    -1.81000
O482        O  0.04827791  0.95244609  0.98479745    -0.71700
O483        O  0.27560253  0.97138445  0.94145572    -0.71500
O484        O  0.26610270  0.92326894  0.04665670    -0.71000
O485        O  0.02934324  0.97138387  0.94144387    -0.71700
O486        O  0.32403025  0.92328622  0.04663474    -0.71300
O487        O  0.23770456  0.95241907  0.98480395    -0.71900
O488        O  0.32404566  0.73458852  0.04660025    -0.71200
O489        O  0.02934286  0.72511252  0.94146749    -0.72000
O490        O  0.26610955  0.67666446  0.04659934    -0.71400
O491        O  0.04830047  0.76299540  0.98481726    -0.71900
O492        O  0.07742197  0.73458846  0.04665986    -0.71800
O493        O  0.07741994  0.67667693  0.04663071    -0.71600
C494        C  0.04657223  0.95415336  0.95481717     0.80200
C495        C  0.24113104  0.95414420  0.95482573     0.80700
C496        C  0.28719196  0.90752299  0.05445412     0.79700
C497        C  0.28719802  0.71350642  0.05439125     0.80100
C498        C  0.04658019  0.75957543  0.95483989     0.81200
C499        C  0.09317307  0.71350577  0.05445406     0.80200
Zn500      Zn  0.02811560  0.97211126  0.48831124     1.49700
Zn501      Zn  0.02811662  0.72262929  0.48830208     1.49400
Zn502      Zn  0.27758370  0.97210414  0.48827417     1.49100
Zn503      Zn  0.00015935  0.00004669  0.55072263     1.49500
O504        O  0.00015797  0.00005615  0.50406637    -1.81000
O505        O  0.07728223  0.67632375  0.46230017    -0.71700
O506        O  0.32389937  0.73424211  0.46229185    -0.71500
O507        O  0.26597387  0.92293262  0.46230527    -0.71000
O508        O  0.07729261  0.73424014  0.46230630    -0.71700
O509        O  0.32389640  0.92293915  0.46233858    -0.71300
O510        O  0.26597296  0.67631039  0.46224929    -0.71900
O511        O  0.27543937  0.97101585  0.56743995    -0.71200
O512        O  0.04812173  0.76264591  0.52413631    -0.72000
O513        O  0.23754975  0.95209267  0.52408769    -0.70400
O514        O  0.02917985  0.72475753  0.56748695    -0.71900
O515        O  0.02916532  0.97101427  0.56747468    -0.71800
O516        O  0.04812378  0.95210004  0.52412521    -0.71600
C517        C  0.09304406  0.71316237  0.45449859     0.80200
C518        C  0.28706340  0.71315746  0.45446474     0.80700
C519        C  0.28705786  0.90717754  0.45452954     0.79700
C520        C  0.24097234  0.95379389  0.55406556     0.80100
C521        C  0.04641086  0.75922568  0.55411617     0.81200
C522        C  0.04640265  0.95379398  0.55410250     0.80200
C523        C  0.03446999  0.85065358  0.21862889    -0.10200
C524        C  0.00790889  0.83739960  0.19945033    -0.11700
C525        C  0.14988215  0.96602271  0.21851639    -0.10200
C526        C  0.16316142  0.99259694  0.19934498    -0.11700
C527        C  0.16320744  0.83737671  0.19951323    -0.10200
C528        C  0.14990181  0.85064650  0.21867297    -0.11700
C529        C  0.16314130  0.99269667  0.30940719    -0.10200
C530        C  0.14988510  0.96612777  0.29024156    -0.11700
C531        C  0.00791231  0.83741504  0.30953593    -0.10200
C532        C  0.03448752  0.85070828  0.29036279    -0.11700
C533        C  0.16310280  0.83737059  0.30956749    -0.10200
C534        C  0.14985388  0.85068809  0.29039715    -0.11700
C535        C  0.32595058  0.82977309  0.80951961    -0.10200
C536        C  0.29938683  0.81646579  0.79034830    -0.11700
C537        C  0.18401466  0.70105324  0.79022269    -0.10200
C538        C  0.17074790  0.67450133  0.80939709    -0.11700
C539        C  0.18406159  0.81646867  0.79038958    -0.10200
C540        C  0.17081979  0.82978218  0.80956361    -0.11700
C541        C  0.29942031  0.81648685  0.71863195    -0.10200
C542        C  0.32598136  0.82972186  0.69946232    -0.11700
C543        C  0.18407085  0.70116983  0.71849715    -0.10200
C544        C  0.17081406  0.67460986  0.69932180    -0.11700
C545        C  0.18401966  0.81650862  0.71866149    -0.10200
C546        C  0.17072180  0.82976051  0.69948706    -0.11700
Zn547      Zn  0.41697865  0.25010512  0.63879768     1.49700
Zn548      Zn  0.44459408  0.22228923  0.57659500     1.49400
Zn549      Zn  0.50011021  0.25011033  0.63879578     1.49100
Zn550      Zn  0.41693102  0.16688883  0.63880914     1.49500
O551        O  0.44465224  0.22234247  0.62290923    -1.81000
O552        O  0.39649126  0.27045070  0.60363135    -0.71700
O553        O  0.50295054  0.25146571  0.56020969    -0.71500
O554        O  0.51045986  0.29609043  0.66688533    -0.71000
O555        O  0.41540111  0.25145337  0.56022960    -0.71700
O556        O  0.45263535  0.29607314  0.66688941    -0.71300
O557        O  0.54090103  0.27044285  0.60360005    -0.71900
O558        O  0.45257585  0.15666354  0.66697156    -0.71200
O559        O  0.41539971  0.16391318  0.56024319    -0.72000
O560        O  0.51037882  0.21452860  0.66698275    -0.71400
O561        O  0.39648744  0.12600574  0.60365138    -0.71900
O562        O  0.37104204  0.15664252  0.66695743    -0.71800
O563        O  0.37112860  0.21450189  0.66697942    -0.71600
C564        C  0.39817514  0.26870411  0.57363835     0.80200
C565        C  0.53744517  0.26870642  0.57360828     0.80700
C566        C  0.48846090  0.30990405  0.67639044     0.79700
C567        C  0.48837940  0.17871565  0.67650677     0.80100
C568        C  0.39817825  0.12942996  0.57365544     0.81200
C569        C  0.35729687  0.17868659  0.67649331     0.80200
C570        C  0.55582981  0.11141723  0.72365868     0.48600
H571        H  0.55584904  0.11147168  0.69732966    -0.00500
C572        C  0.55579449  0.11130179  0.78525836     0.48600
H573        H  0.55577950  0.11124780  0.81158730    -0.00500
C574        C  0.53487261  0.06949807  0.73822527    -0.14200
C575        C  0.59771511  0.13233404  0.73830027    -0.13900
C576        C  0.53487684  0.13232648  0.73831964    -0.14300
C577        C  0.53485397  0.06944101  0.77057915    -0.14300
C578        C  0.59769828  0.13228274  0.77065284    -0.13800
C579        C  0.53486439  0.13227410  0.77067400    -0.14200
Zn580      Zn  0.50020763  0.25026867  0.87011368     1.49700
Zn581      Zn  0.41703702  0.16712798  0.87012227     1.49400
Zn582      Zn  0.44473978  0.22261173  0.93232444     1.49100
Zn583      Zn  0.41700005  0.25027003  0.87011869     1.49500
O584        O  0.44474741  0.22257461  0.88600959    -1.81000
O585        O  0.51052141  0.21462269  0.84201854    -0.71700
O586        O  0.39662191  0.12632376  0.90530731    -0.71500
O587        O  0.50310772  0.25180167  0.94868790    -0.71000
O588        O  0.45266247  0.15682493  0.84200117    -0.71700
O589        O  0.54104258  0.27075262  0.90528993    -0.71300
O590        O  0.41556636  0.16425599  0.94870141    -0.71900
O591        O  0.39661443  0.27075195  0.90528282    -0.71200
O592        O  0.37113098  0.15682529  0.84197604    -0.72000
O593        O  0.41556154  0.25179804  0.94868945    -0.71400
O594        O  0.37106425  0.21460462  0.84200058    -0.71900
O595        O  0.45263023  0.29611083  0.84192872    -0.71800
O596        O  0.51045257  0.29610493  0.84191809    -0.71600
C597        C  0.48849313  0.17881151  0.83250232     0.80200
C598        C  0.39833676  0.12976930  0.93529926     0.80700
C599        C  0.53759932  0.26904429  0.93528329     0.79700
C600        C  0.39833123  0.26904523  0.93527872     0.80100
C601        C  0.35729355  0.17880315  0.83247254     0.81200
C602        C  0.48843249  0.30988279  0.83238807     0.80200
Zn603      Zn  0.58343741  0.16657638  0.37018455     1.49700
Zn604      Zn  0.55574716  0.11118726  0.43261933     1.49400
Zn605      Zn  0.50043823  0.08361369  0.37016855     1.49100
Zn606      Zn  0.58345731  0.08364529  0.37015559     1.49500
O607        O  0.55576616  0.11125226  0.38615819    -1.81000
O608        O  0.60365918  0.20704239  0.40547715    -0.71700
O609        O  0.49751987  0.08206152  0.44907906    -0.71500
O610        O  0.49005310  0.11920335  0.34205561    -0.71000
O611        O  0.58484951  0.16938465  0.44910368    -0.71700
O612        O  0.54789796  0.17698903  0.34204893    -0.71300
O613        O  0.45989136  0.06328473  0.40544100    -0.71900
O614        O  0.54791317  0.03777776  0.34195160    -0.71200
O615        O  0.58484648  0.08206580  0.44906346    -0.72000
O616        O  0.49008351  0.03773499  0.34196635    -0.71400
O617        O  0.60367017  0.06329825  0.40541385    -0.71900
O618        O  0.62944167  0.11924907  0.34203420    -0.71800
O619        O  0.62941004  0.17702760  0.34203756    -0.71600
C620        C  0.60197084  0.20365579  0.43545048     0.80200
C621        C  0.46325116  0.06493933  0.43541790     0.80700
C622        C  0.51208172  0.15500791  0.33252748     0.79700
C623        C  0.51211180  0.02398254  0.33240962     0.80100
C624        C  0.60197419  0.06494250  0.43539233     0.81200
C625        C  0.64323338  0.15505249  0.33250615     0.80200
C626        C  0.44474810  0.22242122  0.22367019     0.48600
H627        H  0.44473627  0.22237600  0.19734182    -0.00500
C628        C  0.44476957  0.22252203  0.28526965     0.48600
H629        H  0.44478127  0.22256840  0.31159807    -0.00500
C630        C  0.40284853  0.20149548  0.23830688    -0.14200
C631        C  0.46570038  0.20150181  0.23832880    -0.13900
C632        C  0.46571203  0.26434479  0.23824066    -0.14300
C633        C  0.40285819  0.20154419  0.27066319    -0.14300
C634        C  0.46570597  0.20154904  0.27068410    -0.13800
C635        C  0.46571990  0.26439555  0.27059592    -0.14200
Zn636      Zn  0.58355491  0.16676558  0.13877890     1.49700
Zn637      Zn  0.50055853  0.08375549  0.13878179     1.49400
Zn638      Zn  0.55586871  0.11149002  0.07631706     1.49100
Zn639      Zn  0.58353070  0.08378234  0.13873963     1.49500
O640        O  0.55587924  0.11145108  0.12277874    -1.81000
O641        O  0.54800048  0.17710846  0.16696480    -0.71700
O642        O  0.46001545  0.06355592  0.10351184    -0.71500
O643        O  0.58496522  0.16971963  0.05986854    -0.71000
O644        O  0.49020355  0.11927071  0.16698952    -0.71700
O645        O  0.60380498  0.20732871  0.10351231    -0.71300
O646        O  0.49764384  0.08239229  0.05987078    -0.71900
O647        O  0.60380476  0.06358533  0.10344590    -0.71200
O648        O  0.49015785  0.03776241  0.16688462    -0.72000
O649        O  0.58496277  0.08239145  0.05982096    -0.71400
O650        O  0.54797191  0.03778447  0.16685632    -0.71900
O651        O  0.62945560  0.11930673  0.16691349    -0.71800
O652        O  0.62949891  0.17712638  0.16692495    -0.71600
C653        C  0.51220638  0.15507406  0.17652259     0.80200
C654        C  0.46337640  0.06526094  0.07353477     0.80700
C655        C  0.60210071  0.20398041  0.07353394     0.79700
C656        C  0.60210547  0.06526797  0.07347189     0.80100
C657        C  0.51216259  0.02395827  0.17639152     0.81200
C658        C  0.64326749  0.15510272  0.17645850     0.80200
Zn659      Zn  0.36159112  0.30578491  0.02062406     1.49700
Zn660      Zn  0.33365248  0.00039939  0.95820102     1.49400
Zn661      Zn  0.61105668  0.30576630  0.02063191     1.49100
Zn662      Zn  0.36160353  0.05630385  0.02063339     1.49500
O663        O  0.33364011  0.00039655  0.00485873    -1.81000
O664        O  0.38161131  0.28577938  0.98479746    -0.71700
O665        O  0.60893583  0.30471775  0.94145573    -0.71500
O666        O  0.59943597  0.25660223  0.04665672    -0.71000
O667        O  0.36267644  0.30471705  0.94144388    -0.71700
O668        O  0.65736354  0.25661960  0.04663476    -0.71300
O669        O  0.57103777  0.28575222  0.98480399    -0.71900
O670        O  0.65737906  0.06792182  0.04660029    -0.71200
O671        O  0.36267612  0.05844573  0.94146742    -0.72000
O672        O  0.59944293  0.00999783  0.04659933    -0.71400
O673        O  0.38163379  0.09632860  0.98481719    -0.71900
O674        O  0.41075532  0.06792180  0.04665981    -0.71800
O675        O  0.41075323  0.01001028  0.04663069    -0.71600
C676        C  0.37990559  0.28748666  0.95481717     0.80200
C677        C  0.57446430  0.28747743  0.95482576     0.80700
C678        C  0.62052525  0.24085630  0.05445411     0.79700
C679        C  0.62053138  0.04683979  0.05439120     0.80100
C680        C  0.37991349  0.09290863  0.95483983     0.81200
C681        C  0.42650639  0.04683910  0.05445406     0.80200
Zn682      Zn  0.36144899  0.30544457  0.48831123     1.49700
Zn683      Zn  0.36144993  0.05596270  0.48830209     1.49400
Zn684      Zn  0.61091702  0.30543735  0.48827418     1.49100
Zn685      Zn  0.33349267  0.33338002  0.55072262     1.49500
O686        O  0.33349127  0.33338941  0.50406637    -1.81000
O687        O  0.41061556  0.00965710  0.46230018    -0.71700
O688        O  0.65723276  0.06757553  0.46229184    -0.71500
O689        O  0.59930723  0.25626586  0.46230533    -0.71000
O690        O  0.41062593  0.06757349  0.46230630    -0.71700
O691        O  0.65722976  0.25627249  0.46233855    -0.71300
O692        O  0.59930637  0.00964383  0.46224926    -0.71900
O693        O  0.60877271  0.30434925  0.56743993    -0.71200
O694        O  0.38145503  0.09597929  0.52413632    -0.72000
O695        O  0.57088303  0.28542597  0.52408767    -0.70400
O696        O  0.36251314  0.05809090  0.56748696    -0.71900
O697        O  0.36249871  0.30434762  0.56747467    -0.71800
O698        O  0.38145713  0.28543334  0.52412521    -0.71600
C699        C  0.42637739  0.04649572  0.45449861     0.80200
C700        C  0.62039678  0.04649090  0.45446476     0.80700
C701        C  0.62039124  0.24051084  0.45452952     0.79700
C702        C  0.57430565  0.28712721  0.55406554     0.80100
C703        C  0.37974417  0.09255905  0.55411618     0.81200
C704        C  0.37973602  0.28712729  0.55410250     0.80200
C705        C  0.36780332  0.18398687  0.21862887    -0.10200
C706        C  0.34124223  0.17073290  0.19945030    -0.11700
C707        C  0.48321543  0.29935601  0.21851641    -0.10200
C708        C  0.49649477  0.32593024  0.19934498    -0.11700
C709        C  0.49654075  0.17071006  0.19951322    -0.10200
C710        C  0.48323509  0.18397978  0.21867298    -0.11700
C711        C  0.49647462  0.32602986  0.30940724    -0.10200
C712        C  0.48321838  0.29946099  0.29024159    -0.11700
C713        C  0.34124557  0.17074835  0.30953590    -0.10200
C714        C  0.36782077  0.18404157  0.29036276    -0.11700
C715        C  0.49643602  0.17070383  0.30956751    -0.10200
C716        C  0.48318711  0.18402132  0.29039716    -0.11700
C717        C  0.65928391  0.16310646  0.80951963    -0.10200
C718        C  0.63272020  0.14979912  0.79034828    -0.11700
C719        C  0.51734803  0.03438659  0.79022265    -0.10200
C720        C  0.50408127  0.00783471  0.80939708    -0.11700
C721        C  0.51739502  0.14980202  0.79038962    -0.10200
C722        C  0.50415321  0.16311553  0.80956367    -0.11700
C723        C  0.63275368  0.14982022  0.71863194    -0.10200
C724        C  0.65931475  0.16305516  0.69946232    -0.11700
C725        C  0.51740420  0.03450315  0.71849715    -0.10200
C726        C  0.50414733  0.00794315  0.69932182    -0.11700
C727        C  0.51735304  0.14984198  0.71866148    -0.10200
C728        C  0.50405515  0.16309382  0.69948703    -0.11700
Zn729      Zn  0.41697856  0.58343841  0.63879767     1.49700
Zn730      Zn  0.44459405  0.55562249  0.57659503     1.49400
Zn731      Zn  0.50011016  0.58344359  0.63879578     1.49100
Zn732      Zn  0.41693099  0.50022205  0.63880917     1.49500
O733        O  0.44465220  0.55567574  0.62290925    -1.81000
O734        O  0.39649123  0.60378400  0.60363133    -0.71700
O735        O  0.50295058  0.58479902  0.56020971    -0.71500
O736        O  0.51045981  0.62942376  0.66688528    -0.71000
O737        O  0.41540108  0.58478669  0.56022964    -0.71700
O738        O  0.45263520  0.62940642  0.66688941    -0.71300
O739        O  0.54090101  0.60377602  0.60360005    -0.71900
O740        O  0.45257583  0.48999675  0.66697156    -0.71200
O741        O  0.41539976  0.49724648  0.56024321    -0.72000
O742        O  0.51037881  0.54786185  0.66698277    -0.71400
O743        O  0.39648745  0.45933897  0.60365137    -0.71900
O744        O  0.37104203  0.48997577  0.66695743    -0.71800
O745        O  0.37112847  0.54783511  0.66697937    -0.71600
C746        C  0.39817513  0.60203744  0.57363835     0.80200
C747        C  0.53744519  0.60203967  0.57360829     0.80700
C748        C  0.48846081  0.64323738  0.67639040     0.79700
C749        C  0.48837937  0.51204891  0.67650681     0.80100
C750        C  0.39817823  0.46276324  0.57365544     0.81200
C751        C  0.35729683  0.51201983  0.67649329     0.80200
C752        C  0.55582985  0.44475057  0.72365870     0.48600
H753        H  0.55584895  0.44480511  0.69732969    -0.00500
C754        C  0.55579450  0.44463516  0.78525839     0.48600
H755        H  0.55577948  0.44458116  0.81158734    -0.00500
C756        C  0.53487262  0.40283140  0.73822529    -0.14200
C757        C  0.59771515  0.46566739  0.73830027    -0.13900
C758        C  0.53487686  0.46565978  0.73831967    -0.14300
C759        C  0.53485397  0.40277436  0.77057918    -0.14300
C760        C  0.59769830  0.46561612  0.77065284    -0.13800
C761        C  0.53486436  0.46560740  0.77067402    -0.14200
Zn762      Zn  0.50020761  0.58360195  0.87011369     1.49700
Zn763      Zn  0.41703706  0.50046140  0.87012230     1.49400
Zn764      Zn  0.44473982  0.55594512  0.93232445     1.49100
Zn765      Zn  0.41699992  0.58360332  0.87011869     1.49500
O766        O  0.44474738  0.55590796  0.88600961    -1.81000
O767        O  0.51052142  0.54795602  0.84201849    -0.71700
O768        O  0.39662203  0.45965719  0.90530731    -0.71500
O769        O  0.50310781  0.58513510  0.94868790    -0.71000
O770        O  0.45266241  0.49015833  0.84200112    -0.71700
O771        O  0.54104259  0.60408601  0.90528992    -0.71300
O772        O  0.41556646  0.49758938  0.94870142    -0.71900
O773        O  0.39661434  0.60408523  0.90528284    -0.71200
O774        O  0.37113097  0.49015872  0.84197607    -0.72000
O775        O  0.41556158  0.58513148  0.94868944    -0.71400
O776        O  0.37106421  0.54793798  0.84200056    -0.71900
O777        O  0.45263019  0.62944405  0.84192871    -0.71800
O778        O  0.51045245  0.62943814  0.84191807    -0.71600
C779        C  0.48849307  0.51214487  0.83250226     0.80200
C780        C  0.39833682  0.46310271  0.93529927     0.80700
C781        C  0.53759937  0.60237777  0.93528328     0.79700
C782        C  0.39833120  0.60237860  0.93527873     0.80100
C783        C  0.35729352  0.51213652  0.83247255     0.81200
C784        C  0.48843240  0.64321600  0.83238803     0.80200
Zn785      Zn  0.58343740  0.49990978  0.37018454     1.49700
Zn786      Zn  0.55574717  0.44452061  0.43261933     1.49400
Zn787      Zn  0.50043820  0.41694697  0.37016854     1.49100
Zn788      Zn  0.58345724  0.41697864  0.37015559     1.49500
O789        O  0.55576613  0.44458564  0.38615818    -1.81000
O790        O  0.60365919  0.54037579  0.40547714    -0.71700
O791        O  0.49751990  0.41539480  0.44907905    -0.71500
O792        O  0.49005320  0.45253672  0.34205558    -0.71000
O793        O  0.58484946  0.50271804  0.44910366    -0.71700
O794        O  0.54789797  0.51032239  0.34204891    -0.71300
O795        O  0.45989139  0.39661809  0.40544099    -0.71900
O796        O  0.54791316  0.37111105  0.34195164    -0.71200
O797        O  0.58484644  0.41539911  0.44906351    -0.72000
O798        O  0.49008345  0.37106816  0.34196638    -0.71400
O799        O  0.60367013  0.39663156  0.40541385    -0.71900
O800        O  0.62944159  0.45258243  0.34203416    -0.71800
O801        O  0.62941002  0.51036090  0.34203756    -0.71600
C802        C  0.60197078  0.53698917  0.43545048     0.80200
C803        C  0.46325119  0.39827268  0.43541790     0.80700
C804        C  0.51208177  0.48834126  0.33252744     0.79700
C805        C  0.51211176  0.35731575  0.33240966     0.80100
C806        C  0.60197418  0.39827584  0.43539235     0.81200
C807        C  0.64323334  0.48838581  0.33250610     0.80200
C808        C  0.44474813  0.55575463  0.22367020     0.48600
H809        H  0.44473633  0.55570933  0.19734183    -0.00500
C810        C  0.44476965  0.55585542  0.28526965     0.48600
H811        H  0.44478134  0.55590168  0.31159812    -0.00500
C812        C  0.40284860  0.53482893  0.23830690    -0.14200
C813        C  0.46570041  0.53483522  0.23832880    -0.13900
C814        C  0.46571209  0.59767819  0.23824064    -0.14300
C815        C  0.40285828  0.53487762  0.27066321    -0.14300
C816        C  0.46570602  0.53488245  0.27068410    -0.13800
C817        C  0.46571999  0.59772895  0.27059590    -0.14200
Zn818      Zn  0.58355489  0.50009882  0.13877890     1.49700
Zn819      Zn  0.50055856  0.41708879  0.13878180     1.49400
Zn820      Zn  0.55586874  0.44482328  0.07631706     1.49100
Zn821      Zn  0.58353075  0.41711568  0.13873966     1.49500
O822        O  0.55587926  0.44478437  0.12277874    -1.81000
O823        O  0.54800050  0.51044168  0.16696481    -0.71700
O824        O  0.46001547  0.39688923  0.10351186    -0.71500
O825        O  0.58496525  0.50305287  0.05986852    -0.71000
O826        O  0.49020357  0.45260406  0.16698954    -0.71700
O827        O  0.60380487  0.54066196  0.10351229    -0.71300
O828        O  0.49764381  0.41572558  0.05987081    -0.71900
O829        O  0.60380480  0.39691860  0.10344590    -0.71200
O830        O  0.49015789  0.37109575  0.16688460    -0.72000
O831        O  0.58496273  0.41572476  0.05982094    -0.71400
O832        O  0.54797186  0.37111775  0.16685635    -0.71900
O833        O  0.62945574  0.45264014  0.16691351    -0.71800
O834        O  0.62949883  0.51045963  0.16692497    -0.71600
C835        C  0.51220642  0.48840737  0.17652260     0.80200
C836        C  0.46337639  0.39859421  0.07353480     0.80700
C837        C  0.60210070  0.53731366  0.07353392     0.79700
C838        C  0.60210547  0.39860128  0.07347189     0.80100
C839        C  0.51216257  0.35729158  0.17639154     0.81200
C840        C  0.64326748  0.48843607  0.17645858     0.80200
Zn841      Zn  0.36159105  0.63911826  0.02062409     1.49700
Zn842      Zn  0.33365242  0.33373268  0.95820103     1.49400
Zn843      Zn  0.61105660  0.63909964  0.02063193     1.49100
Zn844      Zn  0.36160358  0.38963726  0.02063339     1.49500
O845        O  0.33364012  0.33372987  0.00485875    -1.81000
O846        O  0.38161134  0.61911280  0.98479749    -0.71700
O847        O  0.60893584  0.63805122  0.94145574    -0.71500
O848        O  0.59943596  0.58993558  0.04665674    -0.71000
O849        O  0.36267652  0.63805050  0.94144391    -0.71700
O850        O  0.65736350  0.58995285  0.04663472    -0.71300
O851        O  0.57103783  0.61908568  0.98480397    -0.71900
O852        O  0.65737904  0.40125517  0.04660025    -0.71200
O853        O  0.36267614  0.39177911  0.94146742    -0.72000
O854        O  0.59944300  0.34333117  0.04659930    -0.71400
O855        O  0.38163388  0.42966199  0.98481720    -0.71900
O856        O  0.41075530  0.40125521  0.04665988    -0.71800
O857        O  0.41075325  0.34334367  0.04663068    -0.71600
C858        C  0.37990566  0.62082012  0.95481720     0.80200
C859        C  0.57446433  0.62081085  0.95482575     0.80700
C860        C  0.62052523  0.57418961  0.05445411     0.79700
C861        C  0.62053143  0.38017309  0.05439127     0.80100
C862        C  0.37991359  0.42624201  0.95483984     0.81200
C863        C  0.42650638  0.38017248  0.05445408     0.80200
Zn864      Zn  0.36144889  0.63877783  0.48831125     1.49700
Zn865      Zn  0.36144995  0.38929595  0.48830207     1.49400
Zn866      Zn  0.61091697  0.63877076  0.48827418     1.49100
Zn867      Zn  0.33349269  0.66671332  0.55072264     1.49500
O868        O  0.33349130  0.66672275  0.50406639    -1.81000
O869        O  0.41061561  0.34299038  0.46230019    -0.71700
O870        O  0.65723262  0.40090871  0.46229186    -0.71500
O871        O  0.59930729  0.58959929  0.46230529    -0.71000
O872        O  0.41062596  0.40090688  0.46230626    -0.71700
O873        O  0.65722972  0.58960578  0.46233860    -0.71300
O874        O  0.59930639  0.34297708  0.46224925    -0.71900
O875        O  0.60877269  0.63768244  0.56743993    -0.71200
O876        O  0.38145506  0.42931261  0.52413628    -0.72000
O877        O  0.57088304  0.61875928  0.52408768    -0.70400
O878        O  0.36251316  0.39142420  0.56748692    -0.71900
O879        O  0.36249875  0.63768094  0.56747467    -0.71800
O880        O  0.38145712  0.61876668  0.52412520    -0.71600
C881        C  0.42637741  0.37982905  0.45449862     0.80200
C882        C  0.62039671  0.37982414  0.45446474     0.80700
C883        C  0.62039122  0.57384419  0.45452954     0.79700
C884        C  0.57430565  0.62046046  0.55406556     0.80100
C885        C  0.37974424  0.42589236  0.55411614     0.81200
C886        C  0.37973600  0.62046059  0.55410249     0.80200
C887        C  0.36780336  0.51732033  0.21862890    -0.10200
C888        C  0.34124228  0.50406630  0.19945032    -0.11700
C889        C  0.48321547  0.63268940  0.21851643    -0.10200
C890        C  0.49649477  0.65926361  0.19934501    -0.11700
C891        C  0.49654081  0.50404339  0.19951321    -0.10200
C892        C  0.48323514  0.51731317  0.21867293    -0.11700
C893        C  0.49647467  0.65936329  0.30940721    -0.10200
C894        C  0.48321846  0.63279441  0.29024158    -0.11700
C895        C  0.34124561  0.50408165  0.30953591    -0.10200
C896        C  0.36782083  0.51737493  0.29036277    -0.11700
C897        C  0.49643605  0.50403717  0.30956747    -0.10200
C898        C  0.48318719  0.51735471  0.29039712    -0.11700
C899        C  0.65928393  0.49643978  0.80951960    -0.10200
C900        C  0.63272019  0.48313247  0.79034828    -0.11700
C901        C  0.51734806  0.36771995  0.79022266    -0.10200
C902        C  0.50408131  0.34116810  0.80939711    -0.11700
C903        C  0.51739494  0.48313532  0.79038960    -0.10200
C904        C  0.50415309  0.49644884  0.80956360    -0.11700
C905        C  0.63275367  0.48315353  0.71863190    -0.10200
C906        C  0.65931475  0.49638849  0.69946228    -0.11700
C907        C  0.51740426  0.36783648  0.71849716    -0.10200
C908        C  0.50414741  0.34127650  0.69932182    -0.11700
C909        C  0.51735304  0.48317531  0.71866152    -0.10200
C910        C  0.50405516  0.49642713  0.69948705    -0.11700
Zn911      Zn  0.41697855  0.91677174  0.63879769     1.49700
Zn912      Zn  0.44459399  0.88895589  0.57659502     1.49400
Zn913      Zn  0.50011011  0.91677694  0.63879580     1.49100
Zn914      Zn  0.41693091  0.83355543  0.63880922     1.49500
O915        O  0.44465214  0.88900909  0.62290926    -1.81000
O916        O  0.39649114  0.93711735  0.60363136    -0.71700
O917        O  0.50295050  0.91813243  0.56020971    -0.71500
O918        O  0.51045975  0.96275705  0.66688534    -0.71000
O919        O  0.41540110  0.91812013  0.56022962    -0.71700
O920        O  0.45263523  0.96273976  0.66688942    -0.71300
O921        O  0.54090094  0.93710946  0.60360004    -0.71900
O922        O  0.45257572  0.82333013  0.66697163    -0.71200
O923        O  0.41539960  0.83057983  0.56024321    -0.72000
O924        O  0.51037871  0.88119520  0.66698277    -0.71400
O925        O  0.39648734  0.79267239  0.60365140    -0.71900
O926        O  0.37104195  0.82330915  0.66695747    -0.71800
O927        O  0.37112848  0.88116850  0.66697942    -0.71600
C928        C  0.39817507  0.93537081  0.57363837     0.80200
C929        C  0.53744512  0.93537303  0.57360828     0.80700
C930        C  0.48846080  0.97657068  0.67639044     0.79700
C931        C  0.48837929  0.84538225  0.67650681     0.80100
C932        C  0.39817817  0.79609661  0.57365547     0.81200
C933        C  0.35729678  0.84535322  0.67649333     0.80200
C934        C  0.55582985  0.77808386  0.72365870     0.48600
H935        H  0.55584895  0.77813835  0.69732969    -0.00500
C936        C  0.55579451  0.77796850  0.78525839     0.48600
H937        H  0.55577953  0.77791444  0.81158733    -0.00500
C938        C  0.53487259  0.73616472  0.73822528    -0.14200
C939        C  0.59771515  0.79900069  0.73830029    -0.13900
C940        C  0.53487689  0.79899314  0.73831964    -0.14300
C941        C  0.53485394  0.73610768  0.77057918    -0.14300
C942        C  0.59769830  0.79894943  0.77065286    -0.13800
C943        C  0.53486439  0.79894077  0.77067400    -0.14200
Zn944      Zn  0.50020757  0.91693533  0.87011370     1.49700
Zn945      Zn  0.41703706  0.83379467  0.87012226     1.49400
Zn946      Zn  0.44473978  0.88927850  0.93232444     1.49100
Zn947      Zn  0.41699996  0.91693670  0.87011868     1.49500
O948        O  0.44474736  0.88924130  0.88600959    -1.81000
O949        O  0.51052137  0.88128932  0.84201852    -0.71700
O950        O  0.39662193  0.79299049  0.90530733    -0.71500
O951        O  0.50310780  0.91846838  0.94868792    -0.71000
O952        O  0.45266250  0.82349165  0.84200115    -0.71700
O953        O  0.54104259  0.93741941  0.90528991    -0.71300
O954        O  0.41556629  0.83092272  0.94870133    -0.71900
O955        O  0.39661434  0.93741858  0.90528282    -0.71200
O956        O  0.37113101  0.82349203  0.84197601    -0.72000
O957        O  0.41556154  0.91846478  0.94868947    -0.71400
O958        O  0.37106429  0.88127126  0.84200057    -0.71900
O959        O  0.45263015  0.96277747  0.84192873    -0.71800
O960        O  0.51045249  0.96277156  0.84191806    -0.71600
C961        C  0.48849313  0.84547818  0.83250228     0.80200
C962        C  0.39833672  0.79643602  0.93529926     0.80700
C963        C  0.53759937  0.93571104  0.93528327     0.79700
C964        C  0.39833123  0.93571196  0.93527873     0.80100
C965        C  0.35729356  0.84546983  0.83247252     0.81200
C966        C  0.48843240  0.97654941  0.83238805     0.80200
Zn967      Zn  0.58343735  0.83324304  0.37018456     1.49700
Zn968      Zn  0.55574705  0.77785388  0.43261934     1.49400
Zn969      Zn  0.50043814  0.75028032  0.37016852     1.49100
Zn970      Zn  0.58345723  0.75031193  0.37015558     1.49500
O971        O  0.55576606  0.77791889  0.38615818    -1.81000
O972        O  0.60365919  0.87370901  0.40547717    -0.71700
O973        O  0.49751983  0.74872809  0.44907908    -0.71500
O974        O  0.49005312  0.78587002  0.34205558    -0.71000
O975        O  0.58484938  0.83605132  0.44910370    -0.71700
O976        O  0.54789789  0.84365573  0.34204898    -0.71300
O977        O  0.45989126  0.72995137  0.40544098    -0.71900
O978        O  0.54791312  0.70444440  0.34195160    -0.71200
O979        O  0.58484638  0.74873243  0.44906346    -0.72000
O980        O  0.49008352  0.70440157  0.34196635    -0.71400
O981        O  0.60367003  0.72996489  0.40541384    -0.71900
O982        O  0.62944163  0.78591583  0.34203420    -0.71800
O983        O  0.62940994  0.84369427  0.34203753    -0.71600
C984        C  0.60197080  0.87032245  0.43545050     0.80200
C985        C  0.46325111  0.73160589  0.43541789     0.80700
C986        C  0.51208169  0.82167461  0.33252748     0.79700
C987        C  0.51211178  0.69064914  0.33240962     0.80100
C988        C  0.60197411  0.73160915  0.43539232     0.81200
C989        C  0.64323331  0.82171920  0.33250612     0.80200
C990        C  0.44474814  0.88908800  0.22367019     0.48600
H991        H  0.44473632  0.88904272  0.19734183    -0.00500
C992        C  0.44476960  0.88918873  0.28526966     0.48600
H993        H  0.44478132  0.88923513  0.31159807    -0.00500
C994        C  0.40284857  0.86816228  0.23830687    -0.14200
C995        C  0.46570038  0.86816854  0.23832883    -0.13900
C996        C  0.46571211  0.93101154  0.23824066    -0.14300
C997        C  0.40285820  0.86821100  0.27066318    -0.14300
C998        C  0.46570597  0.86821575  0.27068413    -0.13800
C999        C  0.46571995  0.93106227  0.27059593    -0.14200
Zn1000     Zn  0.58355484  0.83343220  0.13877888     1.49700
Zn1001     Zn  0.50055853  0.75042212  0.13878179     1.49400
Zn1002     Zn  0.55586866  0.77815664  0.07631705     1.49100
Zn1003     Zn  0.58353066  0.75044899  0.13873964     1.49500
O1004       O  0.55587920  0.77811771  0.12277872    -1.81000
O1005       O  0.54800053  0.84377512  0.16696482    -0.71700
O1006       O  0.46001542  0.73022254  0.10351186    -0.71500
O1007       O  0.58496529  0.83638626  0.05986854    -0.71000
O1008       O  0.49020355  0.78593735  0.16698954    -0.71700
O1009       O  0.60380488  0.87399537  0.10351229    -0.71300
O1010       O  0.49764377  0.74905897  0.05987077    -0.71900
O1011       O  0.60380480  0.73025201  0.10344593    -0.71200
O1012       O  0.49015791  0.70442908  0.16688461    -0.72000
O1013       O  0.58496266  0.74905804  0.05982097    -0.71400
O1014       O  0.54797188  0.70445110  0.16685633    -0.71900
O1015       O  0.62945552  0.78597339  0.16691350    -0.71800
O1016       O  0.62949887  0.84379305  0.16692496    -0.71600
C1017       C  0.51220640  0.82174072  0.17652258     0.80200
C1018       C  0.46337634  0.73192760  0.07353478     0.80700
C1019       C  0.60210071  0.87064705  0.07353393     0.79700
C1020       C  0.60210543  0.73193460  0.07347191     0.80100
C1021       C  0.51216258  0.69062490  0.17639152     0.81200
C1022       C  0.64326742  0.82176939  0.17645852     0.80200
Zn1023     Zn  0.36159109  0.97245156  0.02062408     1.49700
Zn1024     Zn  0.33365242  0.66706606  0.95820110     1.49400
Zn1025     Zn  0.61105669  0.97243304  0.02063189     1.49100
Zn1026     Zn  0.36160347  0.72297055  0.02063339     1.49500
O1027       O  0.33364003  0.66706322  0.00485880    -1.81000
O1028       O  0.38161128  0.95244610  0.98479744    -0.71700
O1029       O  0.60893586  0.97138443  0.94145570    -0.71500
O1030       O  0.59943603  0.92326893  0.04665671    -0.71000
O1031       O  0.36267658  0.97138388  0.94144387    -0.71700
O1032       O  0.65736351  0.92328623  0.04663473    -0.71300
O1033       O  0.57103790  0.95241905  0.98480394    -0.71900
O1034       O  0.65737904  0.73458854  0.04660025    -0.71200
O1035       O  0.36267606  0.72511243  0.94146744    -0.72000
O1036       O  0.59944291  0.67666447  0.04659935    -0.71400
O1037       O  0.38163376  0.76299539  0.98481721    -0.71900
O1038       O  0.41075524  0.73458846  0.04665983    -0.71800
O1039       O  0.41075315  0.67667693  0.04663073    -0.71600
C1040       C  0.37990559  0.95415338  0.95481716     0.80200
C1041       C  0.57446436  0.95414418  0.95482572     0.80700
C1042       C  0.62052526  0.90752297  0.05445413     0.79700
C1043       C  0.62053137  0.71350645  0.05439122     0.80100
C1044       C  0.37991343  0.75957536  0.95483985     0.81200
C1045       C  0.42650629  0.71350575  0.05445410     0.80200
Zn1046     Zn  0.36144891  0.97211124  0.48831123     1.49700
Zn1047     Zn  0.36144997  0.72262932  0.48830210     1.49400
Zn1048     Zn  0.61091706  0.97210414  0.48827418     1.49100
Zn1049     Zn  0.33349265  0.00004672  0.55072262     1.49500
O1050       O  0.33349127  0.00005614  0.50406637    -1.81000
O1051       O  0.41061550  0.67632370  0.46230018    -0.71700
O1052       O  0.65723267  0.73424211  0.46229173    -0.71500
O1053       O  0.59930727  0.92293263  0.46230529    -0.71000
O1054       O  0.41062593  0.73424014  0.46230632    -0.71700
O1055       O  0.65722979  0.92293913  0.46233857    -0.71300
O1056       O  0.59930623  0.67631041  0.46224927    -0.71900
O1057       O  0.60877267  0.97101581  0.56743997    -0.71200
O1058       O  0.38145498  0.76264592  0.52413634    -0.72000
O1059       O  0.57088301  0.95209269  0.52408767    -0.70400
O1060       O  0.36251321  0.72475753  0.56748698    -0.71900
O1061       O  0.36249862  0.97101427  0.56747466    -0.71800
O1062       O  0.38145704  0.95210002  0.52412522    -0.71600
C1063       C  0.42637733  0.71316232  0.45449858     0.80200
C1064       C  0.62039667  0.71315749  0.45446473     0.80700
C1065       C  0.62039125  0.90717754  0.45452954     0.79700
C1066       C  0.57430562  0.95379390  0.55406556     0.80100
C1067       C  0.37974414  0.75922569  0.55411620     0.81200
C1068       C  0.37973596  0.95379399  0.55410251     0.80200
C1069       C  0.36780336  0.85065367  0.21862887    -0.10200
C1070       C  0.34124227  0.83739964  0.19945030    -0.11700
C1071       C  0.48321554  0.96602276  0.21851643    -0.10200
C1072       C  0.49649482  0.99259697  0.19934501    -0.11700
C1073       C  0.49654075  0.83737673  0.19951322    -0.10200
C1074       C  0.48323509  0.85064650  0.21867296    -0.11700
C1075       C  0.49647468  0.99269666  0.30940722    -0.10200
C1076       C  0.48321847  0.96612777  0.29024159    -0.11700
C1077       C  0.34124552  0.83741506  0.30953590    -0.10200
C1078       C  0.36782074  0.85070830  0.29036277    -0.11700
C1079       C  0.49643604  0.83737058  0.30956749    -0.10200
C1080       C  0.48318707  0.85068803  0.29039716    -0.11700
C1081       C  0.65928392  0.82977323  0.80951960    -0.10200
C1082       C  0.63272018  0.81646586  0.79034829    -0.11700
C1083       C  0.51734803  0.70105323  0.79022269    -0.10200
C1084       C  0.50408126  0.67450132  0.80939710    -0.11700
C1085       C  0.51739497  0.81646868  0.79038959    -0.10200
C1086       C  0.50415319  0.82978222  0.80956362    -0.11700
C1087       C  0.63275371  0.81648685  0.71863195    -0.10200
C1088       C  0.65931477  0.82972184  0.69946232    -0.11700
C1089       C  0.51740417  0.70116983  0.71849715    -0.10200
C1090       C  0.50414734  0.67460986  0.69932180    -0.11700
C1091       C  0.51735302  0.81650860  0.71866146    -0.10200
C1092       C  0.50405510  0.82976044  0.69948702    -0.11700
Zn1093     Zn  0.75031190  0.25010510  0.63879769     1.49700
Zn1094     Zn  0.77792742  0.22228922  0.57659503     1.49400
Zn1095     Zn  0.83344353  0.25011032  0.63879579     1.49100
Zn1096     Zn  0.75026437  0.16688883  0.63880922     1.49500
O1097       O  0.77798555  0.22234247  0.62290927    -1.81000
O1098       O  0.72982455  0.27045069  0.60363135    -0.71700
O1099       O  0.83628388  0.25146569  0.56020971    -0.71500
O1100       O  0.84379315  0.29609043  0.66688532    -0.71000
O1101       O  0.74873439  0.25145335  0.56022964    -0.71700
O1102       O  0.78596855  0.29607311  0.66688940    -0.71300
O1103       O  0.87423437  0.27044284  0.60360007    -0.71900
O1104       O  0.78590920  0.15666355  0.66697161    -0.71200
O1105       O  0.74873308  0.16391319  0.56024322    -0.72000
O1106       O  0.84371221  0.21452860  0.66698277    -0.71400
O1107       O  0.72982083  0.12600576  0.60365141    -0.71900
O1108       O  0.70437534  0.15664240  0.66695749    -0.71800
O1109       O  0.70446189  0.21450183  0.66697943    -0.71600
C1110       C  0.73150844  0.26870412  0.57363836     0.80200
C1111       C  0.87077851  0.26870640  0.57360830     0.80700
C1112       C  0.82179414  0.30990402  0.67639043     0.79700
C1113       C  0.82171276  0.17871567  0.67650683     0.80100
C1114       C  0.73151164  0.12942997  0.57365547     0.81200
C1115       C  0.69063019  0.17868651  0.67649333     0.80200
C1116       C  0.88916313  0.11141722  0.72365869     0.48600
H1117       H  0.88918233  0.11147167  0.69732967    -0.00500
C1118       C  0.88912782  0.11130178  0.78525837     0.48600
H1119       H  0.88911282  0.11124780  0.81158732    -0.00500
C1120       C  0.86820589  0.06949807  0.73822527    -0.14200
C1121       C  0.93104843  0.13233404  0.73830026    -0.13900
C1122       C  0.86821018  0.13232647  0.73831967    -0.14300
C1123       C  0.86818730  0.06944100  0.77057916    -0.14300
C1124       C  0.93103161  0.13228271  0.77065283    -0.13800
C1125       C  0.86819775  0.13227411  0.77067403    -0.14200
Zn1126     Zn  0.83354097  0.25026868  0.87011367     1.49700
Zn1127     Zn  0.75037037  0.16712798  0.87012227     1.49400
Zn1128     Zn  0.77807311  0.22261171  0.93232444     1.49100
Zn1129     Zn  0.75033339  0.25027005  0.87011869     1.49500
O1130       O  0.77808076  0.22257461  0.88600960    -1.81000
O1131       O  0.84385470  0.21462270  0.84201850    -0.71700
O1132       O  0.72995526  0.12632375  0.90530731    -0.71500
O1133       O  0.83644108  0.25180166  0.94868789    -0.71000
O1134       O  0.78599583  0.15682492  0.84200118    -0.71700
O1135       O  0.87437588  0.27075263  0.90528993    -0.71300
O1136       O  0.74889972  0.16425599  0.94870141    -0.71900
O1137       O  0.72994778  0.27075197  0.90528282    -0.71200
O1138       O  0.70446434  0.15682528  0.84197603    -0.72000
O1139       O  0.74889482  0.25179801  0.94868942    -0.71400
O1140       O  0.70439761  0.21460461  0.84200058    -0.71900
O1141       O  0.78596357  0.29611082  0.84192873    -0.71800
O1142       O  0.84378584  0.29610494  0.84191809    -0.71600
C1143       C  0.82182645  0.17881152  0.83250229     0.80200
C1144       C  0.73167006  0.12976930  0.93529926     0.80700
C1145       C  0.87093265  0.26904429  0.93528328     0.79700
C1146       C  0.73166456  0.26904525  0.93527871     0.80100
C1147       C  0.69062691  0.17880315  0.83247254     0.81200
C1148       C  0.82176580  0.30988280  0.83238806     0.80200
Zn1149     Zn  0.91677066  0.16657639  0.37018455     1.49700
Zn1150     Zn  0.88908048  0.11118725  0.43261934     1.49400
Zn1151     Zn  0.83377156  0.08361370  0.37016857     1.49100
Zn1152     Zn  0.91679055  0.08364529  0.37015559     1.49500
O1153       O  0.88909944  0.11125228  0.38615820    -1.81000
O1154       O  0.93699249  0.20704240  0.40547715    -0.71700
O1155       O  0.83085326  0.08206152  0.44907916    -0.71500
O1156       O  0.82338645  0.11920335  0.34205560    -0.71000
O1157       O  0.91818276  0.16938465  0.44910368    -0.71700
O1158       O  0.88123128  0.17698908  0.34204892    -0.71300
O1159       O  0.79322474  0.06328474  0.40544102    -0.71900
O1160       O  0.88124648  0.03777776  0.34195161    -0.71200
O1161       O  0.91817976  0.08206581  0.44906350    -0.72000
O1162       O  0.82341681  0.03773496  0.34196634    -0.71400
O1163       O  0.93700345  0.06329827  0.40541384    -0.71900
O1164       O  0.96277494  0.11924905  0.34203418    -0.71800
O1165       O  0.96274331  0.17702758  0.34203756    -0.71600
C1166       C  0.93530408  0.20365579  0.43545048     0.80200
C1167       C  0.79658456  0.06493933  0.43541794     0.80700
C1168       C  0.84541505  0.15500792  0.33252746     0.79700
C1169       C  0.84544511  0.02398253  0.33240962     0.80100
C1170       C  0.93530748  0.06494252  0.43539234     0.81200
C1171       C  0.97656663  0.15505246  0.33250613     0.80200
C1172       C  0.77808140  0.22242121  0.22367019     0.48600
H1173       H  0.77806965  0.22237600  0.19734181    -0.00500
C1174       C  0.77810293  0.22252206  0.28526963     0.48600
H1175       H  0.77811465  0.22256837  0.31159810    -0.00500
C1176       C  0.73618185  0.20149548  0.23830690    -0.14200
C1177       C  0.79903370  0.20150182  0.23832879    -0.13900
C1178       C  0.79904538  0.26434479  0.23824062    -0.14300
C1179       C  0.73619155  0.20154421  0.27066320    -0.14300
C1180       C  0.79903929  0.20154905  0.27068409    -0.13800
C1181       C  0.79905326  0.26439556  0.27059588    -0.14200
Zn1182     Zn  0.91688824  0.16676557  0.13877890     1.49700
Zn1183     Zn  0.83389188  0.08375548  0.13878179     1.49400
Zn1184     Zn  0.88920205  0.11149001  0.07631706     1.49100
Zn1185     Zn  0.91686403  0.08378235  0.13873963     1.49500
O1186       O  0.88921258  0.11145107  0.12277874    -1.81000
O1187       O  0.88133383  0.17710845  0.16696480    -0.71700
O1188       O  0.79334881  0.06355595  0.10351184    -0.71500
O1189       O  0.91829863  0.16971963  0.05986854    -0.71000
O1190       O  0.82353691  0.11927071  0.16698953    -0.71700
O1191       O  0.93713822  0.20732871  0.10351231    -0.71300
O1192       O  0.83097718  0.08239233  0.05987077    -0.71900
O1193       O  0.93713809  0.06358531  0.10344590    -0.71200
O1194       O  0.82349120  0.03776243  0.16688459    -0.72000
O1195       O  0.91829598  0.08239139  0.05982095    -0.71400
O1196       O  0.88130515  0.03778443  0.16685635    -0.71900
O1197       O  0.96278896  0.11930675  0.16691351    -0.71800
O1198       O  0.96283218  0.17712640  0.16692498    -0.71600
C1199       C  0.84553975  0.15507405  0.17652259     0.80200
C1200       C  0.79670974  0.06526094  0.07353477     0.80700
C1201       C  0.93543404  0.20398041  0.07353394     0.79700
C1202       C  0.93543872  0.06526792  0.07347189     0.80100
C1203       C  0.84549586  0.02395825  0.17639154     0.81200
C1204       C  0.97660078  0.15510274  0.17645854     0.80200
Zn1205     Zn  0.69492448  0.30578491  0.02062409     1.49700
Zn1206     Zn  0.66698583  0.00039938  0.95820102     1.49400
Zn1207     Zn  0.94438995  0.30576632  0.02063188     1.49100
Zn1208     Zn  0.69493689  0.05630386  0.02063340     1.49500
O1209       O  0.66697346  0.00039654  0.00485874    -1.81000
O1210       O  0.71494466  0.28577937  0.98479747    -0.71700
O1211       O  0.94226914  0.30471771  0.94145569    -0.71500
O1212       O  0.93276929  0.25660225  0.04665671    -0.71000
O1213       O  0.69600979  0.30471706  0.94144392    -0.71700
O1214       O  0.99069685  0.25661959  0.04663475    -0.71300
O1215       O  0.90437110  0.28575224  0.98480397    -0.71900
O1216       O  0.99071229  0.06792181  0.04660024    -0.71200
O1217       O  0.69600947  0.05844573  0.94146742    -0.72000
O1218       O  0.93277622  0.00999780  0.04659932    -0.71400
O1219       O  0.71496713  0.09632860  0.98481719    -0.71900
O1220       O  0.74408863  0.06792183  0.04665984    -0.71800
O1221       O  0.74408660  0.01001030  0.04663068    -0.71600
C1222       C  0.71323892  0.28748666  0.95481719     0.80200
C1223       C  0.90779763  0.28747743  0.95482573     0.80700
C1224       C  0.95385856  0.24085631  0.05445411     0.79700
C1225       C  0.95386464  0.04683975  0.05439121     0.80100
C1226       C  0.71324687  0.09290863  0.95483984     0.81200
C1227       C  0.75983972  0.04683912  0.05445406     0.80200
Zn1228     Zn  0.69478233  0.30544457  0.48831122     1.49700
Zn1229     Zn  0.69478331  0.05596270  0.48830211     1.49400
Zn1230     Zn  0.94425025  0.30543736  0.48827419     1.49100
Zn1231     Zn  0.66682601  0.33338004  0.55072262     1.49500
O1232       O  0.66682462  0.33338941  0.50406638    -1.81000
O1233       O  0.74394892  0.00965709  0.46230020    -0.71700
O1234       O  0.99056608  0.06757556  0.46229183    -0.71500
O1235       O  0.93264053  0.25626586  0.46230532    -0.71000
O1236       O  0.74395929  0.06757348  0.46230631    -0.71700
O1237       O  0.99056306  0.25627249  0.46233856    -0.71300
O1238       O  0.93263970  0.00964383  0.46224926    -0.71900
O1239       O  0.94210604  0.30434924  0.56743993    -0.71200
O1240       O  0.71478841  0.09597930  0.52413634    -0.72000
O1241       O  0.90421632  0.28542595  0.52408769    -0.70400
O1242       O  0.69584650  0.05809090  0.56748698    -0.71900
O1243       O  0.69583205  0.30434762  0.56747465    -0.71800
O1244       O  0.71479048  0.28543337  0.52412520    -0.71600
C1245       C  0.75971077  0.04649572  0.45449864     0.80200
C1246       C  0.95373011  0.04649090  0.45446473     0.80700
C1247       C  0.95372453  0.24051085  0.45452952     0.79700
C1248       C  0.90763897  0.28712720  0.55406556     0.80100
C1249       C  0.71307756  0.09255906  0.55411620     0.81200
C1250       C  0.71306935  0.28712730  0.55410249     0.80200
C1251       C  0.70113665  0.18398686  0.21862888    -0.10200
C1252       C  0.67457558  0.17073289  0.19945031    -0.11700
C1253       C  0.81654878  0.29935600  0.21851639    -0.10200
C1254       C  0.82982814  0.32593022  0.19934498    -0.11700
C1255       C  0.82987412  0.17071006  0.19951321    -0.10200
C1256       C  0.81656842  0.18397977  0.21867295    -0.11700
C1257       C  0.82980801  0.32602987  0.30940722    -0.10200
C1258       C  0.81655176  0.29946100  0.29024157    -0.11700
C1259       C  0.67457894  0.17074835  0.30953591    -0.10200
C1260       C  0.70115413  0.18404158  0.29036277    -0.11700
C1261       C  0.82976933  0.17070380  0.30956748    -0.10200
C1262       C  0.81652045  0.18402132  0.29039713    -0.11700
C1263       C  0.99261723  0.16310646  0.80951962    -0.10200
C1264       C  0.96605353  0.14979910  0.79034826    -0.11700
C1265       C  0.85068139  0.03438659  0.79022265    -0.10200
C1266       C  0.83741465  0.00783471  0.80939708    -0.11700
C1267       C  0.85072839  0.14980206  0.79038963    -0.10200
C1268       C  0.83748655  0.16311554  0.80956366    -0.11700
C1269       C  0.96608697  0.14982022  0.71863191    -0.10200
C1270       C  0.99264803  0.16305521  0.69946229    -0.11700
C1271       C  0.85073754  0.03450315  0.71849714    -0.10200
C1272       C  0.83748069  0.00794315  0.69932182    -0.11700
C1273       C  0.85068636  0.14984198  0.71866154    -0.10200
C1274       C  0.83738853  0.16309385  0.69948706    -0.11700
Zn1275     Zn  0.75031190  0.58343843  0.63879767     1.49700
Zn1276     Zn  0.77792732  0.55562251  0.57659503     1.49400
Zn1277     Zn  0.83344350  0.58344360  0.63879577     1.49100
Zn1278     Zn  0.75026433  0.50022207  0.63880915     1.49500
O1279       O  0.77798554  0.55567576  0.62290924    -1.81000
O1280       O  0.72982446  0.60378399  0.60363136    -0.71700
O1281       O  0.83628389  0.58479902  0.56020973    -0.71500
O1282       O  0.84379304  0.62942374  0.66688530    -0.71000
O1283       O  0.74873439  0.58478670  0.56022963    -0.71700
O1284       O  0.78596854  0.62940645  0.66688940    -0.71300
O1285       O  0.87423439  0.60377614  0.60360007    -0.71900
O1286       O  0.78590907  0.48999673  0.66697162    -0.71200
O1287       O  0.74873303  0.49724648  0.56024321    -0.72000
O1288       O  0.84371214  0.54786182  0.66698276    -0.71400
O1289       O  0.72982080  0.45933897  0.60365138    -0.71900
O1290       O  0.70437538  0.48997579  0.66695740    -0.71800
O1291       O  0.70446189  0.54783522  0.66697939    -0.71600
C1292       C  0.73150841  0.60203744  0.57363837     0.80200
C1293       C  0.87077853  0.60203970  0.57360830     0.80700
C1294       C  0.82179411  0.64323739  0.67639041     0.79700
C1295       C  0.82171265  0.51204888  0.67650681     0.80100
C1296       C  0.73151159  0.46276324  0.57365545     0.81200
C1297       C  0.69063019  0.51201989  0.67649326     0.80200
C1298       C  0.88916317  0.44475057  0.72365871     0.48600
H1299       H  0.88918227  0.44480515  0.69732969    -0.00500
C1300       C  0.88912780  0.44463512  0.78525839     0.48600
H1301       H  0.88911287  0.44458121  0.81158733    -0.00500
C1302       C  0.86820593  0.40283138  0.73822528    -0.14200
C1303       C  0.93104845  0.46566736  0.73830028    -0.13900
C1304       C  0.86821018  0.46565978  0.73831966    -0.14300
C1305       C  0.86818723  0.40277431  0.77057917    -0.14300
C1306       C  0.93103159  0.46561610  0.77065285    -0.13800
C1307       C  0.86819770  0.46560740  0.77067401    -0.14200
Zn1308     Zn  0.83354096  0.58360195  0.87011370     1.49700
Zn1309     Zn  0.75037042  0.50046140  0.87012230     1.49400
Zn1310     Zn  0.77807317  0.55594513  0.93232445     1.49100
Zn1311     Zn  0.75033327  0.58360331  0.87011869     1.49500
O1312       O  0.77808075  0.55590797  0.88600961    -1.81000
O1313       O  0.84385478  0.54795603  0.84201849    -0.71700
O1314       O  0.72995523  0.45965717  0.90530732    -0.71500
O1315       O  0.83644117  0.58513510  0.94868790    -0.71000
O1316       O  0.78599579  0.49015832  0.84200115    -0.71700
O1317       O  0.87437595  0.60408601  0.90528992    -0.71300
O1318       O  0.74889978  0.49758937  0.94870142    -0.71900
O1319       O  0.72994758  0.60408516  0.90528282    -0.71200
O1320       O  0.70446436  0.49015873  0.84197605    -0.72000
O1321       O  0.74889491  0.58513147  0.94868944    -0.71400
O1322       O  0.70439758  0.54793798  0.84200055    -0.71900
O1323       O  0.78596345  0.62944407  0.84192872    -0.71800
O1324       O  0.84378577  0.62943813  0.84191807    -0.71600
C1325       C  0.82182644  0.51214486  0.83250227     0.80200
C1326       C  0.73167011  0.46310269  0.93529928     0.80700
C1327       C  0.87093273  0.60237776  0.93528328     0.79700
C1328       C  0.73166448  0.60237854  0.93527872     0.80100
C1329       C  0.69062689  0.51213652  0.83247253     0.81200
C1330       C  0.82176569  0.64321599  0.83238804     0.80200
Zn1331     Zn  0.91677076  0.49990978  0.37018455     1.49700
Zn1332     Zn  0.88908049  0.44452061  0.43261933     1.49400
Zn1333     Zn  0.83377157  0.41694697  0.37016855     1.49100
Zn1334     Zn  0.91679060  0.41697863  0.37015557     1.49500
O1335       O  0.88909949  0.44458563  0.38615819    -1.81000
O1336       O  0.93699257  0.54037579  0.40547715    -0.71700
O1337       O  0.83085323  0.41539477  0.44907904    -0.71500
O1338       O  0.82338660  0.45253674  0.34205558    -0.71000
O1339       O  0.91818282  0.50271804  0.44910367    -0.71700
O1340       O  0.88123134  0.51032241  0.34204891    -0.71300
O1341       O  0.79322466  0.39661811  0.40544096    -0.71900
O1342       O  0.88124653  0.37111105  0.34195163    -0.71200
O1343       O  0.91817979  0.41539916  0.44906347    -0.72000
O1344       O  0.82341681  0.37106815  0.34196637    -0.71400
O1345       O  0.93700340  0.39663156  0.40541386    -0.71900
O1346       O  0.96277495  0.45258243  0.34203417    -0.71800
O1347       O  0.96274336  0.51036089  0.34203756    -0.71600
C1348       C  0.93530416  0.53698918  0.43545048     0.80200
C1349       C  0.79658450  0.39827268  0.43541787     0.80700
C1350       C  0.84541514  0.48834129  0.33252746     0.79700
C1351       C  0.84544514  0.35731575  0.33240965     0.80100
C1352       C  0.93530748  0.39827585  0.43539234     0.81200
C1353       C  0.97656668  0.48838581  0.33250611     0.80200
C1354       C  0.77808146  0.55575463  0.22367020     0.48600
H1355       H  0.77806974  0.55570934  0.19734184    -0.00500
C1356       C  0.77810299  0.55585541  0.28526967     0.48600
H1357       H  0.77811470  0.55590172  0.31159808    -0.00500
C1358       C  0.73618191  0.53482893  0.23830690    -0.14200
C1359       C  0.79903378  0.53483525  0.23832881    -0.13900
C1360       C  0.79904544  0.59767819  0.23824068    -0.14300
C1361       C  0.73619160  0.53487758  0.27066320    -0.14300
C1362       C  0.79903937  0.53488244  0.27068411    -0.13800
C1363       C  0.79905334  0.59772894  0.27059594    -0.14200
Zn1364     Zn  0.91688815  0.50009882  0.13877890     1.49700
Zn1365     Zn  0.83389189  0.41708881  0.13878180     1.49400
Zn1366     Zn  0.88920203  0.44482329  0.07631705     1.49100
Zn1367     Zn  0.91686411  0.41711571  0.13873964     1.49500
O1368       O  0.88921257  0.44478437  0.12277873    -1.81000
O1369       O  0.88133381  0.51044169  0.16696482    -0.71700
O1370       O  0.79334888  0.39688935  0.10351183    -0.71500
O1371       O  0.91829857  0.50305288  0.05986851    -0.71000
O1372       O  0.82353683  0.45260405  0.16698955    -0.71700
O1373       O  0.93713817  0.54066196  0.10351229    -0.71300
O1374       O  0.83097714  0.41572558  0.05987078    -0.71900
O1375       O  0.93713815  0.39691864  0.10344591    -0.71200
O1376       O  0.82349127  0.37109576  0.16688458    -0.72000
O1377       O  0.91829603  0.41572476  0.05982095    -0.71400
O1378       O  0.88130525  0.37111777  0.16685634    -0.71900
O1379       O  0.96278908  0.45264013  0.16691347    -0.71800
O1380       O  0.96283212  0.51045962  0.16692496    -0.71600
C1381       C  0.84553972  0.48840736  0.17652261     0.80200
C1382       C  0.79670974  0.39859428  0.07353477     0.80700
C1383       C  0.93543405  0.53731367  0.07353392     0.79700
C1384       C  0.93543880  0.39860131  0.07347189     0.80100
C1385       C  0.84549595  0.35729159  0.17639154     0.81200
C1386       C  0.97660084  0.48843609  0.17645851     0.80200
Zn1387     Zn  0.69492440  0.63911825  0.02062409     1.49700
Zn1388     Zn  0.66698574  0.33373266  0.95820113     1.49400
Zn1389     Zn  0.94439000  0.63909964  0.02063192     1.49100
Zn1390     Zn  0.69493693  0.38963727  0.02063341     1.49500
O1391       O  0.66697347  0.33372987  0.00485882    -1.81000
O1392       O  0.71494459  0.61911275  0.98479747    -0.71700
O1393       O  0.94226919  0.63805124  0.94145573    -0.71500
O1394       O  0.93276937  0.58993560  0.04665674    -0.71000
O1395       O  0.69600983  0.63805048  0.94144391    -0.71700
O1396       O  0.99069690  0.58995284  0.04663472    -0.71300
O1397       O  0.90437120  0.61908566  0.98480397    -0.71900
O1398       O  0.99071236  0.40125520  0.04660023    -0.71200
O1399       O  0.69600948  0.39177909  0.94146746    -0.72000
O1400       O  0.93277630  0.34333119  0.04659930    -0.71400
O1401       O  0.71496711  0.42966200  0.98481722    -0.71900
O1402       O  0.74408867  0.40125524  0.04665988    -0.71800
O1403       O  0.74408660  0.34334368  0.04663070    -0.71600
C1404       C  0.71323893  0.62082006  0.95481719     0.80200
C1405       C  0.90779769  0.62081085  0.95482574     0.80700
C1406       C  0.95385862  0.57418961  0.05445411     0.79700
C1407       C  0.95386472  0.38017314  0.05439121     0.80100
C1408       C  0.71324681  0.42624200  0.95483986     0.81200
C1409       C  0.75983974  0.38017251  0.05445407     0.80200
Zn1410     Zn  0.69478222  0.63877786  0.48831124     1.49700
Zn1411     Zn  0.69478328  0.38929596  0.48830210     1.49400
Zn1412     Zn  0.94425036  0.63877076  0.48827417     1.49100
Zn1413     Zn  0.66682601  0.66671333  0.55072261     1.49500
O1414       O  0.66682457  0.66672274  0.50406636    -1.81000
O1415       O  0.74394891  0.34299040  0.46230017    -0.71700
O1416       O  0.99056592  0.40090870  0.46229182    -0.71500
O1417       O  0.93264068  0.58959929  0.46230529    -0.71000
O1418       O  0.74395929  0.40090689  0.46230628    -0.71700
O1419       O  0.99056311  0.58960578  0.46233860    -0.71300
O1420       O  0.93263958  0.34297707  0.46224928    -0.71900
O1421       O  0.94210603  0.63768246  0.56743993    -0.71200
O1422       O  0.71478844  0.42931262  0.52413629    -0.72000
O1423       O  0.90421639  0.61875927  0.52408769    -0.70400
O1424       O  0.69584653  0.39142420  0.56748693    -0.71900
O1425       O  0.69583200  0.63768095  0.56747468    -0.71800
O1426       O  0.71479045  0.61876672  0.52412522    -0.71600
C1427       C  0.75971070  0.37982906  0.45449857     0.80200
C1428       C  0.95372998  0.37982413  0.45446473     0.80700
C1429       C  0.95372461  0.57384419  0.45452954     0.79700
C1430       C  0.90763898  0.62046048  0.55406556     0.80100
C1431       C  0.71307755  0.42589237  0.55411615     0.81200
C1432       C  0.71306929  0.62046062  0.55410251     0.80200
C1433       C  0.70113670  0.51732036  0.21862891    -0.10200
C1434       C  0.67457560  0.50406631  0.19945035    -0.11700
C1435       C  0.81654884  0.63268943  0.21851645    -0.10200
C1436       C  0.82982810  0.65926363  0.19934501    -0.11700
C1437       C  0.82987409  0.50404336  0.19951322    -0.10200
C1438       C  0.81656850  0.51731319  0.21867295    -0.11700
C1439       C  0.82980794  0.65936328  0.30940723    -0.10200
C1440       C  0.81655175  0.63279440  0.29024160    -0.11700
C1441       C  0.67457895  0.50408166  0.30953590    -0.10200
C1442       C  0.70115418  0.51737491  0.29036278    -0.11700
C1443       C  0.82976944  0.50403719  0.30956748    -0.10200
C1444       C  0.81652054  0.51735470  0.29039714    -0.11700
C1445       C  0.99261725  0.49643982  0.80951960    -0.10200
C1446       C  0.96605348  0.48313244  0.79034830    -0.11700
C1447       C  0.85068135  0.36771994  0.79022266    -0.10200
C1448       C  0.83741463  0.34116810  0.80939710    -0.11700
C1449       C  0.85072827  0.48313533  0.79038957    -0.10200
C1450       C  0.83748645  0.49644885  0.80956360    -0.11700
C1451       C  0.96608699  0.48315350  0.71863195    -0.10200
C1452       C  0.99264805  0.49638846  0.69946233    -0.11700
C1453       C  0.85073754  0.36783648  0.71849715    -0.10200
C1454       C  0.83748067  0.34127649  0.69932182    -0.11700
C1455       C  0.85068633  0.48317528  0.71866151    -0.10200
C1456       C  0.83738842  0.49642711  0.69948706    -0.11700
Zn1457     Zn  0.75031192  0.91677175  0.63879768     1.49700
Zn1458     Zn  0.77792738  0.88895589  0.57659500     1.49400
Zn1459     Zn  0.83344348  0.91677696  0.63879577     1.49100
Zn1460     Zn  0.75026430  0.83355544  0.63880914     1.49500
O1461       O  0.77798552  0.88900910  0.62290923    -1.81000
O1462       O  0.72982452  0.93711735  0.60363136    -0.71700
O1463       O  0.83628389  0.91813244  0.56020970    -0.71500
O1464       O  0.84379313  0.96275706  0.66688533    -0.71000
O1465       O  0.74873448  0.91812014  0.56022961    -0.71700
O1466       O  0.78596861  0.96273976  0.66688942    -0.71300
O1467       O  0.87423434  0.93710947  0.60360004    -0.71900
O1468       O  0.78590912  0.82333019  0.66697156    -0.71200
O1469       O  0.74873297  0.83057982  0.56024319    -0.72000
O1470       O  0.84371210  0.88119525  0.66698277    -0.71400
O1471       O  0.72982070  0.79267237  0.60365137    -0.71900
O1472       O  0.70437533  0.82330916  0.66695741    -0.71800
O1473       O  0.70446187  0.88116851  0.66697941    -0.71600
C1474       C  0.73150845  0.93537081  0.57363837     0.80200
C1475       C  0.87077851  0.93537304  0.57360828     0.80700
C1476       C  0.82179417  0.97657068  0.67639044     0.79700
C1477       C  0.82171268  0.84538230  0.67650678     0.80100
C1478       C  0.73151151  0.79609659  0.57365544     0.81200
C1479       C  0.69063017  0.84535322  0.67649331     0.80200
C1480       C  0.88916317  0.77808386  0.72365870     0.48600
H1481       H  0.88918233  0.77813836  0.69732968    -0.00500
C1482       C  0.88912781  0.77796850  0.78525838     0.48600
H1483       H  0.88911280  0.77791444  0.81158732    -0.00500
C1484       C  0.86820594  0.73616471  0.73822528    -0.14200
C1485       C  0.93104847  0.79900071  0.73830027    -0.13900
C1486       C  0.86821020  0.79899314  0.73831965    -0.14300
C1487       C  0.86818731  0.73610768  0.77057917    -0.14300
C1488       C  0.93103161  0.79894943  0.77065285    -0.13800
C1489       C  0.86819769  0.79894076  0.77067401    -0.14200
Zn1490     Zn  0.83354093  0.91693533  0.87011371     1.49700
Zn1491     Zn  0.75037032  0.83379467  0.87012225     1.49400
Zn1492     Zn  0.77807315  0.88927853  0.93232444     1.49100
Zn1493     Zn  0.75033335  0.91693673  0.87011869     1.49500
O1494       O  0.77808071  0.88924130  0.88600959    -1.81000
O1495       O  0.84385472  0.88128932  0.84201855    -0.71700
O1496       O  0.72995525  0.79299053  0.90530734    -0.71500
O1497       O  0.83644116  0.91846837  0.94868792    -0.71000
O1498       O  0.78599582  0.82349169  0.84200115    -0.71700
O1499       O  0.87437595  0.93741940  0.90528991    -0.71300
O1500       O  0.74889968  0.83092275  0.94870133    -0.71900
O1501       O  0.72994770  0.93741860  0.90528282    -0.71200
O1502       O  0.70446431  0.82349204  0.84197603    -0.72000
O1503       O  0.74889490  0.91846479  0.94868947    -0.71400
O1504       O  0.70439764  0.88127130  0.84200056    -0.71900
O1505       O  0.78596354  0.96277748  0.84192873    -0.71800
O1506       O  0.84378586  0.96277156  0.84191806    -0.71600
C1507       C  0.82182646  0.84547819  0.83250230     0.80200
C1508       C  0.73167009  0.79643606  0.93529926     0.80700
C1509       C  0.87093273  0.93571103  0.93528328     0.79700
C1510       C  0.73166457  0.93571195  0.93527872     0.80100
C1511       C  0.69062690  0.84546987  0.83247252     0.81200
C1512       C  0.82176578  0.97654941  0.83238805     0.80200
Zn1513     Zn  0.91677075  0.83324306  0.37018455     1.49700
Zn1514     Zn  0.88908048  0.77785398  0.43261934     1.49400
Zn1515     Zn  0.83377152  0.75028034  0.37016853     1.49100
Zn1516     Zn  0.91679059  0.75031194  0.37015558     1.49500
O1517       O  0.88909946  0.77791893  0.38615818    -1.81000
O1518       O  0.93699258  0.87370904  0.40547716    -0.71700
O1519       O  0.83085322  0.74872816  0.44907908    -0.71500
O1520       O  0.82338650  0.78587002  0.34205558    -0.71000
O1521       O  0.91818279  0.83605137  0.44910372    -0.71700
O1522       O  0.88123127  0.84365573  0.34204897    -0.71300
O1523       O  0.79322463  0.72995138  0.40544100    -0.71900
O1524       O  0.88124644  0.70444439  0.34195159    -0.71200
O1525       O  0.91817982  0.74873251  0.44906346    -0.72000
O1526       O  0.82341677  0.70440160  0.34196637    -0.71400
O1527       O  0.93700339  0.72996488  0.40541384    -0.71900
O1528       O  0.96277500  0.78591581  0.34203421    -0.71800
O1529       O  0.96274333  0.84369427  0.34203753    -0.71600
C1530       C  0.93530419  0.87032250  0.43545050     0.80200
C1531       C  0.79658449  0.73160594  0.43541791     0.80700
C1532       C  0.84541507  0.82167461  0.33252748     0.79700
C1533       C  0.84544506  0.69064915  0.33240963     0.80100
C1534       C  0.93530751  0.73160919  0.43539232     0.81200
C1535       C  0.97656670  0.82171919  0.33250613     0.80200
C1536       C  0.77808143  0.88908792  0.22367019     0.48600
H1537       H  0.77806962  0.88904274  0.19734182    -0.00500
C1538       C  0.77810296  0.88918873  0.28526966     0.48600
H1539       H  0.77811455  0.88923512  0.31159807    -0.00500
C1540       C  0.73618188  0.86816223  0.23830689    -0.14200
C1541       C  0.79903372  0.86816851  0.23832881    -0.13900
C1542       C  0.79904536  0.93101149  0.23824064    -0.14300
C1543       C  0.73619156  0.86821095  0.27066321    -0.14300
C1544       C  0.79903936  0.86821576  0.27068410    -0.13800
C1545       C  0.79905327  0.93106225  0.27059591    -0.14200
Zn1546     Zn  0.91688816  0.83343218  0.13877889     1.49700
Zn1547     Zn  0.83389180  0.75042211  0.13878179     1.49400
Zn1548     Zn  0.88920201  0.77815664  0.07631707     1.49100
Zn1549     Zn  0.91686398  0.75044899  0.13873966     1.49500
O1550       O  0.88921251  0.77811770  0.12277874    -1.81000
O1551       O  0.88133386  0.84377509  0.16696481    -0.71700
O1552       O  0.79334873  0.73022255  0.10351184    -0.71500
O1553       O  0.91829865  0.83638626  0.05986854    -0.71000
O1554       O  0.82353684  0.78593737  0.16698952    -0.71700
O1555       O  0.93713824  0.87399536  0.10351230    -0.71300
O1556       O  0.83097713  0.74905895  0.05987078    -0.71900
O1557       O  0.93713819  0.73025201  0.10344593    -0.71200
O1558       O  0.82349112  0.70442906  0.16688463    -0.72000
O1559       O  0.91829603  0.74905807  0.05982100    -0.71400
O1560       O  0.88130518  0.70445111  0.16685632    -0.71900
O1561       O  0.96278887  0.78597339  0.16691352    -0.71800
O1562       O  0.96283222  0.84379302  0.16692495    -0.71600
C1563       C  0.84553972  0.82174073  0.17652259     0.80200
C1564       C  0.79670968  0.73192759  0.07353477     0.80700
C1565       C  0.93543400  0.87064705  0.07353394     0.79700
C1566       C  0.93543879  0.73193460  0.07347192     0.80100
C1567       C  0.84549586  0.69062491  0.17639152     0.81200
C1568       C  0.97660075  0.82176936  0.17645856     0.80200
Zn1569     Zn  0.69492445  0.97245157  0.02062408     1.49700
Zn1570     Zn  0.66698579  0.66706609  0.95820111     1.49400
Zn1571     Zn  0.94439000  0.97243304  0.02063190     1.49100
Zn1572     Zn  0.69493685  0.72297057  0.02063338     1.49500
O1573       O  0.66697339  0.66706322  0.00485879    -1.81000
O1574       O  0.71494464  0.95244612  0.98479744    -0.71700
O1575       O  0.94226920  0.97138443  0.94145569    -0.71500
O1576       O  0.93276935  0.92326890  0.04665673    -0.71000
O1577       O  0.69600987  0.97138385  0.94144384    -0.71700
O1578       O  0.99069686  0.92328625  0.04663473    -0.71300
O1579       O  0.90437126  0.95241904  0.98480393    -0.71900
O1580       O  0.99071242  0.73458849  0.04660028    -0.71200
O1581       O  0.69600947  0.72511251  0.94146748    -0.72000
O1582       O  0.93277621  0.67666445  0.04659932    -0.71400
O1583       O  0.71496716  0.76299543  0.98481722    -0.71900
O1584       O  0.74408860  0.73458845  0.04665982    -0.71800
O1585       O  0.74408652  0.67667692  0.04663070    -0.71600
C1586       C  0.71323891  0.95415339  0.95481715     0.80200
C1587       C  0.90779771  0.95414417  0.95482571     0.80700
C1588       C  0.95385860  0.90752297  0.05445413     0.79700
C1589       C  0.95386474  0.71350640  0.05439127     0.80100
C1590       C  0.71324684  0.75957542  0.95483987     0.81200
C1591       C  0.75983967  0.71350575  0.05445407     0.80200
Zn1592     Zn  0.69478228  0.97211124  0.48831124     1.49700
Zn1593     Zn  0.69478323  0.72262930  0.48830207     1.49400
Zn1594     Zn  0.94425041  0.97210414  0.48827417     1.49100
Zn1595     Zn  0.66682596  0.00004669  0.55072263     1.49500
O1596       O  0.66682462  0.00005613  0.50406637    -1.81000
O1597       O  0.74394888  0.67632371  0.46230018    -0.71700
O1598       O  0.99056605  0.73424210  0.46229174    -0.71500
O1599       O  0.93264064  0.92293266  0.46230528    -0.71000
O1600       O  0.74395925  0.73424011  0.46230633    -0.71700
O1601       O  0.99056317  0.92293916  0.46233857    -0.71300
O1602       O  0.93263961  0.67631042  0.46224927    -0.71900
O1603       O  0.94210606  0.97101580  0.56743996    -0.71200
O1604       O  0.71478827  0.76264591  0.52413631    -0.72000
O1605       O  0.90421639  0.95209270  0.52408767    -0.70400
O1606       O  0.69584647  0.72475753  0.56748695    -0.71900
O1607       O  0.69583199  0.97101427  0.56747466    -0.71800
O1608       O  0.71479041  0.95210002  0.52412522    -0.71600
C1609       C  0.75971069  0.71316233  0.45449860     0.80200
C1610       C  0.95373005  0.71315750  0.45446474     0.80700
C1611       C  0.95372464  0.90717758  0.45452953     0.79700
C1612       C  0.90763901  0.95379389  0.55406556     0.80100
C1613       C  0.71307745  0.75922568  0.55411617     0.81200
C1614       C  0.71306933  0.95379399  0.55410251     0.80200
C1615       C  0.70113664  0.85065360  0.21862889    -0.10200
C1616       C  0.67457554  0.83739962  0.19945032    -0.11700
C1617       C  0.81654876  0.96602272  0.21851640    -0.10200
C1618       C  0.82982808  0.99259695  0.19934499    -0.11700
C1619       C  0.82987408  0.83737675  0.19951323    -0.10200
C1620       C  0.81656841  0.85064650  0.21867296    -0.11700
C1621       C  0.82980795  0.99269665  0.30940720    -0.10200
C1622       C  0.81655176  0.96612776  0.29024157    -0.11700
C1623       C  0.67457888  0.83741506  0.30953592    -0.10200
C1624       C  0.70115411  0.85070829  0.29036280    -0.11700
C1625       C  0.82976941  0.83737059  0.30956749    -0.10200
C1626       C  0.81652046  0.85068805  0.29039715    -0.11700
C1627       C  0.99261724  0.82977319  0.80951963    -0.10200
C1628       C  0.96605352  0.81646587  0.79034830    -0.11700
C1629       C  0.85068138  0.70105324  0.79022269    -0.10200
C1630       C  0.83741459  0.67450132  0.80939710    -0.11700
C1631       C  0.85072829  0.81646867  0.79038960    -0.10200
C1632       C  0.83748650  0.82978220  0.80956364    -0.11700
C1633       C  0.96608705  0.81648683  0.71863193    -0.10200
C1634       C  0.99264812  0.82972179  0.69946231    -0.11700
C1635       C  0.85073752  0.70116982  0.71849715    -0.10200
C1636       C  0.83748067  0.67460986  0.69932180    -0.11700
C1637       C  0.85068637  0.81650864  0.71866145    -0.10200
C1638       C  0.83738847  0.82976051  0.69948703    -0.11700
loop_ 
_geom_bond_atom_site_label_1 
_geom_bond_atom_site_label_2 
_geom_bond_distance 
_geom_bond_site_symmetry_2 
_ccdc_geom_bond_type 
Zn1           O5   1.965       .  S
Zn1           O6   2.015       .  S
Zn1          O10   1.998       .  S
Zn1          O17   1.997       .  S
Zn2           O5   1.957       .  S
Zn2           O7   2.063       .  S
Zn2           O9   2.063       .  S
Zn2          O13   2.063       .  S
Zn3           O5   1.965       .  S
Zn3           O8   1.998       .  S
Zn3          O11   2.014       .  S
Zn3          O14   1.997       .  S
Zn4           O5   1.965       .  S
Zn4          O12   1.997       .  S
Zn4          O15   2.015       .  S
Zn4          O16   1.997       .  S
O6           C18   1.273       .  A
O7           C19   1.281       .  A
O8           C20   1.269       .  A
O9           C18   1.281       .  A
O10          C20   1.268       .  A
O11          C19   1.273       .  A
O12          C21   1.269       .  A
O13          C22   1.281       .  A
O14          C21   1.268       .  A
O15          C22   1.273       .  A
O16          C23   1.269       .  A
O17          C23   1.268       .  A
C18         C158   1.480       .  S
C19         C156   1.479       .  S
C20         C362   1.425       .  S
C21         C182   1.425       .  S
C22         C157   1.480       .  S
C23        C1270   1.425   1_455  S
C24          H25   1.113       .  S
C24          C30   1.526       .  S
C24          C29   1.526       .  S
C24          C28   1.526       .  S
C26          H27   1.113       .  S
C26          C32   1.526       .  S
C26          C31   1.526       .  S
C26          C33   1.526       .  S
C28          C31   1.367       .  D
C28         C179   1.433       .  S
C29          C32   1.367       .  D
C29         C177   1.433       .  S
C30          C33   1.367       .  D
C30         C181   1.433       .  S
C31         C173   1.432       .  S
C32         C172   1.433       .  S
C33         C175   1.433       .  S
Zn34         O38   1.965       .  S
Zn34         O39   1.998       .  S
Zn34         O43   2.015       .  S
Zn34         O50   1.997       .  S
Zn35         O38   1.965       .  S
Zn35         O40   2.014       .  S
Zn35         O42   1.997       .  S
Zn35         O46   1.997       .  S
Zn36         O38   1.957       .  S
Zn36         O41   2.063       .  S
Zn36         O44   2.063       .  S
Zn36         O47   2.063       .  S
Zn37         O38   1.965       .  S
Zn37         O45   2.015       .  S
Zn37         O48   1.998       .  S
Zn37         O49   1.997       .  S
O39          C51   1.269       .  A
O40          C52   1.273       .  A
O41          C53   1.281       .  A
O42          C51   1.268       .  A
O43          C53   1.273       .  A
O44          C52   1.281       .  A
O45          C54   1.273       .  A
O46          C55   1.268       .  A
O47          C54   1.281       .  A
O48          C55   1.269       .  A
O49          C56   1.268       .  A
O50          C56   1.268       .  A
C51         C176   1.425       .  S
C52         C134   1.479       .  S
C53         C131   1.480       .  S
C54         C130   1.480       .  S
C55        C1263   1.425   1_455  S
C56         C356   1.425       .  S
Zn57         O61   1.962       .  S
Zn57         O62   2.010       .  S
Zn57         O66   1.997       .  S
Zn57         O73   1.998       .  S
Zn58         O61   1.964       .  S
Zn58         O63   2.060       .  S
Zn58         O65   2.060       .  S
Zn58         O69   2.060       .  S
Zn59         O61   1.962       .  S
Zn59         O64   1.998       .  S
Zn59         O67   2.011       .  S
Zn59         O70   1.998       .  S
Zn60         O61   1.962       .  S
Zn60         O68   1.997       .  S
Zn60         O71   2.011       .  S
Zn60         O72   1.998       .  S
O62          C74   1.272       .  A
O63          C75   1.279       .  A
O64          C76   1.268       .  A
O65          C74   1.279       .  A
O66          C76   1.268       .  A
O67          C75   1.272       .  A
O68          C77   1.268       .  A
O69          C78   1.279       .  A
O70          C77   1.268       .  A
O71          C78   1.272       .  A
O72          C79   1.268       .  A
O73          C79   1.268       .  A
C74         C155   1.469       .  S
C75         C153   1.469       .  S
C76         C169   1.425       .  S
C77         C529   1.425   1_545  S
C78         C154   1.469       .  S
C79         C713   1.425       .  S
C80          H81   1.113       .  S
C80          C86   1.526       .  S
C80          C85   1.526       .  S
C80          C84   1.526       .  S
C82          H83   1.113       .  S
C82          C88   1.526       .  S
C82          C87   1.526       .  S
C82          C89   1.526       .  S
C84          C87   1.367       .  D
C84         C159   1.433       .  S
C85          C88   1.367       .  D
C85         C164   1.433       .  S
C86          C89   1.367       .  D
C86         C161   1.433       .  S
C87         C168   1.433       .  S
C88         C170   1.433       .  S
C89         C166   1.433       .  S
Zn90         O94   1.962       .  S
Zn90         O95   1.998       .  S
Zn90         O99   2.011       .  S
Zn90        O106   1.998       .  S
Zn91         O94   1.962       .  S
Zn91         O96   2.011       .  S
Zn91         O98   1.998       .  S
Zn91        O102   1.998       .  S
Zn92         O94   1.964       .  S
Zn92         O97   2.060       .  S
Zn92        O100   2.060       .  S
Zn92        O103   2.060       .  S
Zn93         O94   1.962       .  S
Zn93        O101   2.011       .  S
Zn93        O104   1.998       .  S
Zn93        O105   1.997       .  S
O95         C107   1.268       .  A
O96         C108   1.272       .  A
O97         C109   1.279       .  A
O98         C107   1.268       .  A
O99         C109   1.272       .  A
O100        C108   1.279       .  A
O101        C110   1.272       .  A
O102        C111   1.268       .  A
O103        C110   1.279       .  A
O104        C111   1.268       .  A
O105        C112   1.268       .  A
O106        C112   1.268       .  A
C107        C163   1.425       .  S
C108        C135   1.469       .  S
C109        C132   1.469       .  S
C110        C133   1.469       .  S
C111        C526   1.425   1_545  S
C112        C706   1.425       .  S
Zn113       O299   1.977       .  S
Zn113       O118   2.017   1_554  S
Zn113      O1214   2.034   1_455  S
Zn113       O311   2.034       .  S
Zn114       O117   1.972   1_556  S
Zn114       O125   2.058       .  S
Zn114      O1575   2.058   1_445  S
Zn114       O485   2.059   1_545  S
Zn115       O845   1.978       .  S
Zn115       O120   2.034       .  S
Zn115       O123   2.017   1_554  S
Zn115       O308   2.034       .  S
Zn116       O117   1.978       .  S
Zn116       O127   2.017   1_554  S
Zn116       O128   2.034       .  S
Zn116      O1216   2.034   1_455  S
O117       Zn477   1.977   1_545  S
O117      Zn1571   1.978   1_445  S
O118        C130   1.272       .  A
O119       Zn842   2.058       .  S
O119        C131   1.279       .  A
O120        C132   1.275       .  A
O121       Zn296   2.059       .  S
O121        C130   1.279       .  A
O122       Zn659   2.034       .  S
O122        C132   1.274       .  A
O123        C131   1.272       .  A
O124       Zn662   2.034       .  S
O124        C133   1.274       .  A
O125        C134   1.279       .  A
O126       Zn479   2.034   1_545  S
O126        C133   1.274       .  A
O127        C134   1.272       .  A
O128        C135   1.274       .  A
O129       Zn477   2.034   1_545  S
O129        C135   1.274       .  A
Zn136       O140   1.978       .  S
Zn136       O152   2.017       .  S
Zn136       O323   2.034       .  S
Zn136      O1237   2.033   1_455  S
Zn137       O504   1.977       .  S
Zn137       O144   2.034       .  S
Zn137       O148   2.017       .  S
Zn137      O1234   2.034   1_455  S
Zn138       O686   1.978       .  S
Zn138       O143   2.034       .  S
Zn138       O149   2.017       .  S
Zn138       O328   2.034       .  S
Zn139       O140   1.972       .  S
Zn139       O151   2.059       .  S
Zn139      O1239   2.058   1_455  S
Zn139       O332   2.059       .  S
O140       Zn319   1.977       .  S
O140      Zn1230   1.978   1_455  S
O141       Zn500   2.034   1_545  S
O141        C153   1.274       .  A
O142       Zn683   2.034       .  S
O142        C154   1.275       .  A
O143        C155   1.274       .  A
O144        C153   1.275       .  A
O145       Zn682   2.033       .  S
O145        C155   1.274       .  A
O146       Zn502   2.034   1_545  S
O146        C154   1.275       .  A
O147       Zn685   2.058       .  S
O147        C156   1.279       .  A
O148        C157   1.272       .  A
O149        C156   1.272       .  A
O150       Zn503   2.059       .  S
O150        C157   1.279       .  A
O151        C158   1.279       .  A
O152        C158   1.272       .  A
C159        C160   1.200       .  T
C160       C1204   1.425   1_455  S
C161        C162   1.200       .  T
C162        C293   1.425       .  S
C163        C164   1.200       .  T
C165        C259   1.425       .  S
C165        C166   1.200       .  T
C167       C1171   1.425   1_455  S
C167        C168   1.200       .  T
C169        C170   1.200       .  T
C171        C601   1.425       .  S
C171        C172   1.200       .  T
C173        C174   1.199       .  T
C174        C420   1.425   1_545  S
C175        C176   1.200       .  T
C177        C178   1.199       .  T
C178        C569   1.425       .  S
C179        C180   1.200       .  T
C180        C384   1.425   1_545  S
C181        C182   1.199       .  T
Zn183       O187   1.965       .  S
Zn183       O188   2.015       .  S
Zn183       O192   1.998       .  S
Zn183       O199   1.997       .  S
Zn184       O187   1.957       .  S
Zn184       O189   2.063       .  S
Zn184       O191   2.063       .  S
Zn184       O195   2.063       .  S
Zn185       O187   1.965       .  S
Zn185       O190   1.998       .  S
Zn185       O193   2.014       .  S
Zn185       O196   1.997       .  S
Zn186       O187   1.965       .  S
Zn186       O194   1.997       .  S
Zn186       O197   2.015       .  S
Zn186       O198   1.997       .  S
O188        C200   1.273       .  A
O189        C201   1.281       .  A
O190        C202   1.269       .  A
O191        C200   1.281       .  A
O192        C202   1.268       .  A
O193        C201   1.273       .  A
O194        C203   1.269       .  A
O195        C204   1.281       .  A
O196        C203   1.268       .  A
O197        C204   1.273       .  A
O198        C205   1.269       .  A
O199        C205   1.268       .  A
C200        C340   1.480       .  S
C201        C338   1.479       .  S
C202        C544   1.425       .  S
C203        C364   1.425       .  S
C204        C339   1.480       .  S
C205       C1452   1.425   1_455  S
C206        H207   1.113       .  S
C206        C212   1.526       .  S
C206        C211   1.526       .  S
C206        C210   1.526       .  S
C208        H209   1.113       .  S
C208        C214   1.526       .  S
C208        C213   1.526       .  S
C208        C215   1.526       .  S
C210        C213   1.367       .  D
C210        C361   1.433       .  S
C211        C214   1.367       .  D
C211        C359   1.433       .  S
C212        C215   1.367       .  D
C212        C363   1.433       .  S
C213        C355   1.432       .  S
C214        C354   1.433       .  S
C215        C357   1.433       .  S
Zn216       O220   1.965       .  S
Zn216       O221   1.998       .  S
Zn216       O225   2.015       .  S
Zn216       O232   1.997       .  S
Zn217       O220   1.965       .  S
Zn217       O222   2.014       .  S
Zn217       O224   1.997       .  S
Zn217       O228   1.997       .  S
Zn218       O220   1.957       .  S
Zn218       O223   2.063       .  S
Zn218       O226   2.063       .  S
Zn218       O229   2.063       .  S
Zn219       O220   1.965       .  S
Zn219       O227   2.015       .  S
Zn219       O230   1.998       .  S
Zn219       O231   1.997       .  S
O221        C233   1.269       .  A
O222        C234   1.273       .  A
O223        C235   1.281       .  A
O224        C233   1.268       .  A
O225        C235   1.273       .  A
O226        C234   1.281       .  A
O227        C236   1.273       .  A
O228        C237   1.268       .  A
O229        C236   1.281       .  A
O230        C237   1.269       .  A
O231        C238   1.268       .  A
O232        C238   1.268       .  A
C233        C358   1.425       .  S
C234        C316   1.479       .  S
C235        C313   1.480       .  S
C236        C312   1.480       .  S
C237       C1445   1.425   1_455  S
C238        C538   1.425       .  S
Zn239       O243   1.962       .  S
Zn239       O244   2.010       .  S
Zn239       O248   1.997       .  S
Zn239       O255   1.998       .  S
Zn240       O243   1.964       .  S
Zn240       O245   2.060       .  S
Zn240       O247   2.060       .  S
Zn240       O251   2.060       .  S
Zn241       O243   1.962       .  S
Zn241       O246   1.998       .  S
Zn241       O249   2.011       .  S
Zn241       O252   1.998       .  S
Zn242       O243   1.962       .  S
Zn242       O250   1.997       .  S
Zn242       O253   2.011       .  S
Zn242       O254   1.998       .  S
O244        C256   1.272       .  A
O245        C257   1.279       .  A
O246        C258   1.268       .  A
O247        C256   1.279       .  A
O248        C258   1.268       .  A
O249        C257   1.272       .  A
O250        C259   1.268       .  A
O251        C260   1.279       .  A
O252        C259   1.268       .  A
O253        C260   1.272       .  A
O254        C261   1.268       .  A
O255        C261   1.268       .  A
C256        C337   1.469       .  S
C257        C335   1.469       .  S
C258        C351   1.425       .  S
C260        C336   1.469       .  S
C261        C895   1.425       .  S
C262        H263   1.113       .  S
C262        C268   1.526       .  S
C262        C267   1.526       .  S
C262        C266   1.526       .  S
C264        H265   1.113       .  S
C264        C270   1.526       .  S
C264        C269   1.526       .  S
C264        C271   1.526       .  S
C266        C269   1.367       .  D
C266        C341   1.433       .  S
C267        C270   1.367       .  D
C267        C346   1.433       .  S
C268        C271   1.367       .  D
C268        C343   1.433       .  S
C269        C350   1.433       .  S
C270        C352   1.433       .  S
C271        C348   1.433       .  S
Zn272       O276   1.962       .  S
Zn272       O277   1.998       .  S
Zn272       O281   2.011       .  S
Zn272       O288   1.998       .  S
Zn273       O276   1.962       .  S
Zn273       O278   2.011       .  S
Zn273       O280   1.998       .  S
Zn273       O284   1.998       .  S
Zn274       O276   1.964       .  S
Zn274       O279   2.060       .  S
Zn274       O282   2.060       .  S
Zn274       O285   2.060       .  S
Zn275       O276   1.962       .  S
Zn275       O283   2.011       .  S
Zn275       O286   1.998       .  S
Zn275       O287   1.997       .  S
O277        C289   1.268       .  A
O278        C290   1.272       .  A
O279        C291   1.279       .  A
O280        C289   1.268       .  A
O281        C291   1.272       .  A
O282        C290   1.279       .  A
O283        C292   1.272       .  A
O284        C293   1.268       .  A
O285        C292   1.279       .  A
O286        C293   1.268       .  A
O287        C294   1.268       .  A
O288        C294   1.268       .  A
C289        C345   1.425       .  S
C290        C317   1.469       .  S
C291        C314   1.469       .  S
C292        C315   1.469       .  S
C294        C888   1.425       .  S
Zn295       O481   1.977       .  S
Zn295       O300   2.017   1_554  S
Zn295      O1396   2.034   1_455  S
Zn295       O493   2.034       .  S
Zn296       O299   1.972   1_556  S
Zn296      O1211   2.058   1_455  S
Zn296       O307   2.058       .  S
Zn297      O1027   1.978       .  S
Zn297       O302   2.034       .  S
Zn297       O305   2.017   1_554  S
Zn297       O490   2.034       .  S
Zn298       O299   1.978       .  S
Zn298      O1398   2.034   1_455  S
Zn298       O309   2.017   1_554  S
Zn298       O310   2.034       .  S
O299      Zn1207   1.978   1_455  S
O300        C312   1.272       .  A
O301      Zn1024   2.058       .  S
O301        C313   1.279       .  A
O302        C314   1.275       .  A
O303       Zn478   2.059       .  S
O303        C312   1.279       .  A
O304       Zn841   2.034       .  S
O304        C314   1.274       .  A
O305        C313   1.272       .  A
O306       Zn844   2.034       .  S
O306        C315   1.274       .  A
O307        C316   1.279       .  A
O308        C315   1.274       .  A
O309        C316   1.272       .  A
O310        C317   1.274       .  A
O311        C317   1.274       .  A
Zn318       O322   1.978       .  S
Zn318       O505   2.034       .  S
Zn318      O1419   2.033   1_455  S
Zn318       O334   2.017       .  S
Zn319      O1416   2.034   1_455  S
Zn319       O326   2.034       .  S
Zn319       O330   2.017       .  S
Zn320       O868   1.978       .  S
Zn320       O325   2.034       .  S
Zn320       O510   2.034       .  S
Zn320       O331   2.017       .  S
Zn321       O322   1.972       .  S
Zn321      O1421   2.058   1_455  S
Zn321       O514   2.059       .  S
Zn321       O333   2.059       .  S
O322       Zn501   1.977       .  S
O322      Zn1412   1.978   1_455  S
O323        C335   1.274       .  A
O324       Zn865   2.034       .  S
O324        C336   1.275       .  A
O325        C337   1.274       .  A
O326        C335   1.275       .  A
O327       Zn864   2.033       .  S
O327        C337   1.274       .  A
O328        C336   1.275       .  A
O329       Zn867   2.058       .  S
O329        C338   1.279       .  A
O330        C339   1.272       .  A
O331        C338   1.272       .  A
O332        C339   1.279       .  A
O333        C340   1.279       .  A
O334        C340   1.272       .  A
C341        C342   1.200       .  T
C342       C1386   1.425   1_455  S
C343        C344   1.200       .  T
C344        C475   1.425       .  S
C345        C346   1.200       .  T
C347        C441   1.425       .  S
C347        C348   1.200       .  T
C349       C1353   1.425   1_455  S
C349        C350   1.200       .  T
C351        C352   1.200       .  T
C353        C783   1.425       .  S
C353        C354   1.200       .  T
C355        C356   1.199       .  T
C357        C358   1.200       .  T
C359        C360   1.199       .  T
C360        C751   1.425       .  S
C361        C362   1.200       .  T
C363        C364   1.199       .  T
Zn365       O369   1.965       .  S
Zn365       O370   2.015       .  S
Zn365       O374   1.998       .  S
Zn365       O381   1.997       .  S
Zn366       O369   1.957       .  S
Zn366       O371   2.063       .  S
Zn366       O373   2.063       .  S
Zn366       O377   2.063       .  S
Zn367       O369   1.965       .  S
Zn367       O372   1.998       .  S
Zn367       O375   2.014       .  S
Zn367       O378   1.997       .  S
Zn368       O369   1.965       .  S
Zn368       O376   1.997       .  S
Zn368       O379   2.015       .  S
Zn368       O380   1.997       .  S
O370        C382   1.273       .  A
O371        C383   1.281       .  A
O372        C384   1.269       .  A
O373        C382   1.281       .  A
O374        C384   1.268       .  A
O375        C383   1.273       .  A
O376        C385   1.269       .  A
O377        C386   1.281       .  A
O378        C385   1.268       .  A
O379        C386   1.273       .  A
O380        C387   1.269       .  A
O381        C387   1.268       .  A
C382        C522   1.480       .  S
C383        C520   1.479       .  S
C385        C546   1.425       .  S
C386        C521   1.480       .  S
C387       C1634   1.425   1_455  S
C388        H389   1.113       .  S
C388        C394   1.526       .  S
C388        C393   1.526       .  S
C388        C392   1.526       .  S
C390        H391   1.113       .  S
C390        C396   1.526       .  S
C390        C395   1.526       .  S
C390        C397   1.526       .  S
C392        C395   1.367       .  D
C392        C543   1.433       .  S
C393        C396   1.367       .  D
C393        C541   1.433       .  S
C394        C397   1.367       .  D
C394        C545   1.433       .  S
C395        C537   1.432       .  S
C396        C536   1.433       .  S
C397        C539   1.433       .  S
Zn398       O402   1.965       .  S
Zn398       O403   1.998       .  S
Zn398       O407   2.015       .  S
Zn398       O414   1.997       .  S
Zn399       O402   1.965       .  S
Zn399       O404   2.014       .  S
Zn399       O406   1.997       .  S
Zn399       O410   1.997       .  S
Zn400       O402   1.957       .  S
Zn400       O405   2.063       .  S
Zn400       O408   2.063       .  S
Zn400       O411   2.063       .  S
Zn401       O402   1.965       .  S
Zn401       O409   2.015       .  S
Zn401       O412   1.998       .  S
Zn401       O413   1.997       .  S
O403        C415   1.269       .  A
O404        C416   1.273       .  A
O405        C417   1.281       .  A
O406        C415   1.268       .  A
O407        C417   1.273       .  A
O408        C416   1.281       .  A
O409        C418   1.273       .  A
O410        C419   1.268       .  A
O411        C418   1.281       .  A
O412        C419   1.269       .  A
O413        C420   1.268       .  A
O414        C420   1.268       .  A
C415        C540   1.425       .  S
C416        C498   1.479       .  S
C417        C495   1.480       .  S
C418        C494   1.480       .  S
C419       C1627   1.425   1_455  S
Zn421       O425   1.962       .  S
Zn421       O426   2.010       .  S
Zn421       O430   1.997       .  S
Zn421       O437   1.998       .  S
Zn422       O425   1.964       .  S
Zn422       O427   2.060       .  S
Zn422       O429   2.060       .  S
Zn422       O433   2.060       .  S
Zn423       O425   1.962       .  S
Zn423       O428   1.998       .  S
Zn423       O431   2.011       .  S
Zn423       O434   1.998       .  S
Zn424       O425   1.962       .  S
Zn424       O432   1.997       .  S
Zn424       O435   2.011       .  S
Zn424       O436   1.998       .  S
O426        C438   1.272       .  A
O427        C439   1.279       .  A
O428        C440   1.268       .  A
O429        C438   1.279       .  A
O430        C440   1.268       .  A
O431        C439   1.272       .  A
O432        C441   1.268       .  A
O433        C442   1.279       .  A
O434        C441   1.268       .  A
O435        C442   1.272       .  A
O436        C443   1.268       .  A
O437        C443   1.268       .  A
C438        C519   1.469       .  S
C439        C517   1.469       .  S
C440        C533   1.425       .  S
C442        C518   1.469       .  S
C443       C1077   1.425       .  S
C444        H445   1.113       .  S
C444        C450   1.526       .  S
C444        C449   1.526       .  S
C444        C448   1.526       .  S
C446        H447   1.113       .  S
C446        C452   1.526       .  S
C446        C451   1.526       .  S
C446        C453   1.526       .  S
C448        C451   1.367       .  D
C448        C523   1.433       .  S
C449        C452   1.367       .  D
C449        C528   1.433       .  S
C450        C453   1.367       .  D
C450        C525   1.433       .  S
C451        C532   1.433       .  S
C452        C534   1.433       .  S
C453        C530   1.433       .  S
Zn454       O458   1.962       .  S
Zn454       O459   1.998       .  S
Zn454       O463   2.011       .  S
Zn454       O470   1.998       .  S
Zn455       O458   1.962       .  S
Zn455       O460   2.011       .  S
Zn455       O462   1.998       .  S
Zn455       O466   1.998       .  S
Zn456       O458   1.964       .  S
Zn456       O461   2.060       .  S
Zn456       O464   2.060       .  S
Zn456       O467   2.060       .  S
Zn457       O458   1.962       .  S
Zn457       O465   2.011       .  S
Zn457       O468   1.998       .  S
Zn457       O469   1.997       .  S
O459        C471   1.268       .  A
O460        C472   1.272       .  A
O461        C473   1.279       .  A
O462        C471   1.268       .  A
O463        C473   1.272       .  A
O464        C472   1.279       .  A
O465        C474   1.272       .  A
O466        C475   1.268       .  A
O467        C474   1.279       .  A
O468        C475   1.268       .  A
O469        C476   1.268       .  A
O470        C476   1.268       .  A
C471        C527   1.425       .  S
C472        C499   1.469       .  S
C473        C496   1.469       .  S
C474        C497   1.469       .  S
C476       C1070   1.425       .  S
Zn477       O482   2.017   1_554  S
Zn477      O1578   2.034   1_455  S
Zn478       O481   1.972   1_556  S
Zn478      O1393   2.058   1_455  S
Zn478       O489   2.058       .  S
Zn479       O663   1.978   1_565  S
Zn479       O484   2.034       .  S
Zn479       O487   2.017   1_554  S
Zn480       O481   1.978       .  S
Zn480      O1580   2.034   1_455  S
Zn480       O491   2.017   1_554  S
Zn480       O492   2.034       .  S
O481      Zn1389   1.978   1_455  S
O482        C494   1.272       .  A
O483       Zn660   2.058   1_565  S
O483        C495   1.279       .  A
O484        C496   1.275       .  A
O485        C494   1.279       .  A
O486      Zn1023   2.034       .  S
O486        C496   1.274       .  A
O487        C495   1.272       .  A
O488      Zn1026   2.034       .  S
O488        C497   1.274       .  A
O489        C498   1.279       .  A
O490        C497   1.274       .  A
O491        C498   1.272       .  A
O492        C499   1.274       .  A
O493        C499   1.274       .  A
Zn500       O504   1.978   1_565  S
Zn500      O1601   2.033   1_455  S
Zn500       O516   2.017       .  S
Zn501      O1598   2.034   1_455  S
Zn501       O508   2.034       .  S
Zn501       O512   2.017       .  S
Zn502      O1050   1.978   1_565  S
Zn502       O507   2.034       .  S
Zn502       O513   2.017       .  S
Zn503       O504   1.972       .  S
Zn503      O1603   2.058   1_445  S
Zn503       O515   2.059   1_545  S
O504      Zn1594   1.978   1_445  S
O505        C517   1.274       .  A
O506      Zn1047   2.034       .  S
O506        C518   1.275       .  A
O507        C519   1.274       .  A
O508        C517   1.275       .  A
O509      Zn1046   2.033       .  S
O509        C519   1.274       .  A
O510        C518   1.275       .  A
O511      Zn1049   2.058   1_565  S
O511        C520   1.279       .  A
O512        C521   1.272       .  A
O513        C520   1.272       .  A
O514        C521   1.279       .  A
O515        C522   1.279       .  A
O516        C522   1.272       .  A
C523        C524   1.200       .  T
C524       C1568   1.425   1_455  S
C525        C526   1.200       .  T
C527        C528   1.200       .  T
C529        C530   1.200       .  T
C531       C1535   1.425   1_455  S
C531        C532   1.200       .  T
C533        C534   1.200       .  T
C535        C965   1.425       .  S
C535        C536   1.200       .  T
C537        C538   1.199       .  T
C539        C540   1.200       .  T
C541        C542   1.199       .  T
C542        C933   1.425       .  S
C543        C544   1.200       .  T
C545        C546   1.199       .  T
Zn547       O551   1.965       .  S
Zn547       O552   2.015       .  S
Zn547       O556   1.998       .  S
Zn547       O563   1.997       .  S
Zn548       O551   1.957       .  S
Zn548       O553   2.063       .  S
Zn548       O555   2.063       .  S
Zn548       O559   2.063       .  S
Zn549       O551   1.965       .  S
Zn549       O554   1.998       .  S
Zn549       O557   2.014       .  S
Zn549       O560   1.997       .  S
Zn550       O551   1.965       .  S
Zn550       O558   1.997       .  S
Zn550       O561   2.015       .  S
Zn550       O562   1.997       .  S
O552        C564   1.273       .  A
O553        C565   1.281       .  A
O554        C566   1.269       .  A
O555        C564   1.281       .  A
O556        C566   1.268       .  A
O557        C565   1.273       .  A
O558        C567   1.269       .  A
O559        C568   1.281       .  A
O560        C567   1.268       .  A
O561        C568   1.273       .  A
O562        C569   1.269       .  A
O563        C569   1.268       .  A
C564        C704   1.480       .  S
C565        C702   1.479       .  S
C566        C908   1.425       .  S
C567        C728   1.425       .  S
C568        C703   1.480       .  S
C570        H571   1.113       .  S
C570        C576   1.526       .  S
C570        C575   1.526       .  S
C570        C574   1.526       .  S
C572        H573   1.113       .  S
C572        C578   1.526       .  S
C572        C577   1.526       .  S
C572        C579   1.526       .  S
C574        C577   1.367       .  D
C574        C725   1.433       .  S
C575        C578   1.367       .  D
C575        C723   1.433       .  S
C576        C579   1.367       .  D
C576        C727   1.433       .  S
C577        C719   1.432       .  S
C578        C718   1.433       .  S
C579        C721   1.433       .  S
Zn580       O584   1.965       .  S
Zn580       O585   1.998       .  S
Zn580       O589   2.015       .  S
Zn580       O596   1.997       .  S
Zn581       O584   1.965       .  S
Zn581       O586   2.014       .  S
Zn581       O588   1.997       .  S
Zn581       O592   1.997       .  S
Zn582       O584   1.957       .  S
Zn582       O587   2.063       .  S
Zn582       O590   2.063       .  S
Zn582       O593   2.063       .  S
Zn583       O584   1.965       .  S
Zn583       O591   2.015       .  S
Zn583       O594   1.998       .  S
Zn583       O595   1.997       .  S
O585        C597   1.269       .  A
O586        C598   1.273       .  A
O587        C599   1.281       .  A
O588        C597   1.268       .  A
O589        C599   1.273       .  A
O590        C598   1.281       .  A
O591        C600   1.273       .  A
O592        C601   1.268       .  A
O593        C600   1.281       .  A
O594        C601   1.269       .  A
O595        C602   1.268       .  A
O596        C602   1.268       .  A
C597        C722   1.425       .  S
C598        C680   1.479       .  S
C599        C677   1.480       .  S
C600        C676   1.480       .  S
C602        C902   1.425       .  S
Zn603       O607   1.962       .  S
Zn603       O608   2.010       .  S
Zn603       O612   1.997       .  S
Zn603       O619   1.998       .  S
Zn604       O607   1.964       .  S
Zn604       O609   2.060       .  S
Zn604       O611   2.060       .  S
Zn604       O615   2.060       .  S
Zn605       O607   1.962       .  S
Zn605       O610   1.998       .  S
Zn605       O613   2.011       .  S
Zn605       O616   1.998       .  S
Zn606       O607   1.962       .  S
Zn606       O614   1.997       .  S
Zn606       O617   2.011       .  S
Zn606       O618   1.998       .  S
O608        C620   1.272       .  A
O609        C621   1.279       .  A
O610        C622   1.268       .  A
O611        C620   1.279       .  A
O612        C622   1.268       .  A
O613        C621   1.272       .  A
O614        C623   1.268       .  A
O615        C624   1.279       .  A
O616        C623   1.268       .  A
O617        C624   1.272       .  A
O618        C625   1.268       .  A
O619        C625   1.268       .  A
C620        C701   1.469       .  S
C621        C699   1.469       .  S
C622        C715   1.425       .  S
C623       C1075   1.425   1_545  S
C624        C700   1.469       .  S
C625       C1259   1.425       .  S
C626        H627   1.113       .  S
C626        C632   1.526       .  S
C626        C631   1.526       .  S
C626        C630   1.526       .  S
C628        H629   1.113       .  S
C628        C634   1.526       .  S
C628        C633   1.526       .  S
C628        C635   1.526       .  S
C630        C633   1.367       .  D
C630        C705   1.433       .  S
C631        C634   1.367       .  D
C631        C710   1.433       .  S
C632        C635   1.367       .  D
C632        C707   1.433       .  S
C633        C714   1.433       .  S
C634        C716   1.433       .  S
C635        C712   1.433       .  S
Zn636       O640   1.962       .  S
Zn636       O641   1.998       .  S
Zn636       O645   2.011       .  S
Zn636       O652   1.998       .  S
Zn637       O640   1.962       .  S
Zn637       O642   2.011       .  S
Zn637       O644   1.998       .  S
Zn637       O648   1.998       .  S
Zn638       O640   1.964       .  S
Zn638       O643   2.060       .  S
Zn638       O646   2.060       .  S
Zn638       O649   2.060       .  S
Zn639       O640   1.962       .  S
Zn639       O647   2.011       .  S
Zn639       O650   1.998       .  S
Zn639       O651   1.997       .  S
O641        C653   1.268       .  A
O642        C654   1.272       .  A
O643        C655   1.279       .  A
O644        C653   1.268       .  A
O645        C655   1.272       .  A
O646        C654   1.279       .  A
O647        C656   1.272       .  A
O648        C657   1.268       .  A
O649        C656   1.279       .  A
O650        C657   1.268       .  A
O651        C658   1.268       .  A
O652        C658   1.268       .  A
C653        C709   1.425       .  S
C654        C681   1.469       .  S
C655        C678   1.469       .  S
C656        C679   1.469       .  S
C657       C1072   1.425   1_545  S
C658       C1252   1.425       .  S
Zn659       O845   1.977       .  S
Zn659       O664   2.017   1_554  S
Zn659       O857   2.034       .  S
Zn660       O663   1.972   1_556  S
Zn660      O1031   2.059   1_545  S
Zn660       O671   2.058       .  S
Zn661      O1391   1.978       .  S
Zn661       O666   2.034       .  S
Zn661       O669   2.017   1_554  S
Zn661       O854   2.034       .  S
Zn662       O663   1.978       .  S
Zn662       O673   2.017   1_554  S
Zn662       O674   2.034       .  S
O663      Zn1023   1.977   1_545  S
O664        C676   1.272       .  A
O665      Zn1388   2.058       .  S
O665        C677   1.279       .  A
O666        C678   1.275       .  A
O667       Zn842   2.059       .  S
O667        C676   1.279       .  A
O668      Zn1205   2.034       .  S
O668        C678   1.274       .  A
O669        C677   1.272       .  A
O670      Zn1208   2.034       .  S
O670        C679   1.274       .  A
O671        C680   1.279       .  A
O672      Zn1025   2.034   1_545  S
O672        C679   1.274       .  A
O673        C680   1.272       .  A
O674        C681   1.274       .  A
O675      Zn1023   2.034   1_545  S
O675        C681   1.274       .  A
Zn682       O686   1.978       .  S
Zn682       O869   2.034       .  S
Zn682       O698   2.017       .  S
Zn683      O1050   1.977       .  S
Zn683       O690   2.034       .  S
Zn683       O694   2.017       .  S
Zn684      O1232   1.978       .  S
Zn684       O689   2.034       .  S
Zn684       O874   2.034       .  S
Zn684       O695   2.017       .  S
Zn685       O686   1.972       .  S
Zn685       O878   2.059       .  S
Zn685       O697   2.059       .  S
O686       Zn865   1.977       .  S
O687      Zn1046   2.034   1_545  S
O687        C699   1.274       .  A
O688      Zn1229   2.034       .  S
O688        C700   1.275       .  A
O689        C701   1.274       .  A
O690        C699   1.275       .  A
O691      Zn1228   2.033       .  S
O691        C701   1.274       .  A
O692      Zn1048   2.034   1_545  S
O692        C700   1.275       .  A
O693      Zn1231   2.058       .  S
O693        C702   1.279       .  A
O694        C703   1.272       .  A
O695        C702   1.272       .  A
O696      Zn1049   2.059       .  S
O696        C703   1.279       .  A
O697        C704   1.279       .  A
O698        C704   1.272       .  A
C705        C706   1.200       .  T
C707        C708   1.200       .  T
C708        C839   1.425       .  S
C709        C710   1.200       .  T
C711        C805   1.425       .  S
C711        C712   1.200       .  T
C713        C714   1.200       .  T
C715        C716   1.200       .  T
C717       C1147   1.425       .  S
C717        C718   1.200       .  T
C719        C720   1.199       .  T
C720        C966   1.425   1_545  S
C721        C722   1.200       .  T
C723        C724   1.199       .  T
C724       C1115   1.425       .  S
C725        C726   1.200       .  T
C726        C930   1.425   1_545  S
C727        C728   1.199       .  T
Zn729       O733   1.965       .  S
Zn729       O734   2.015       .  S
Zn729       O738   1.998       .  S
Zn729       O745   1.997       .  S
Zn730       O733   1.957       .  S
Zn730       O735   2.063       .  S
Zn730       O737   2.063       .  S
Zn730       O741   2.063       .  S
Zn731       O733   1.965       .  S
Zn731       O736   1.998       .  S
Zn731       O739   2.014       .  S
Zn731       O742   1.997       .  S
Zn732       O733   1.965       .  S
Zn732       O740   1.997       .  S
Zn732       O743   2.015       .  S
Zn732       O744   1.997       .  S
O734        C746   1.273       .  A
O735        C747   1.281       .  A
O736        C748   1.269       .  A
O737        C746   1.281       .  A
O738        C748   1.268       .  A
O739        C747   1.273       .  A
O740        C749   1.269       .  A
O741        C750   1.281       .  A
O742        C749   1.268       .  A
O743        C750   1.273       .  A
O744        C751   1.269       .  A
O745        C751   1.268       .  A
C746        C886   1.480       .  S
C747        C884   1.479       .  S
C748       C1090   1.425       .  S
C749        C910   1.425       .  S
C750        C885   1.480       .  S
C752        H753   1.113       .  S
C752        C758   1.526       .  S
C752        C757   1.526       .  S
C752        C756   1.526       .  S
C754        H755   1.113       .  S
C754        C760   1.526       .  S
C754        C759   1.526       .  S
C754        C761   1.526       .  S
C756        C759   1.367       .  D
C756        C907   1.433       .  S
C757        C760   1.367       .  D
C757        C905   1.433       .  S
C758        C761   1.367       .  D
C758        C909   1.433       .  S
C759        C901   1.432       .  S
C760        C900   1.433       .  S
C761        C903   1.433       .  S
Zn762       O766   1.965       .  S
Zn762       O767   1.998       .  S
Zn762       O771   2.015       .  S
Zn762       O778   1.997       .  S
Zn763       O766   1.965       .  S
Zn763       O768   2.014       .  S
Zn763       O770   1.997       .  S
Zn763       O774   1.997       .  S
Zn764       O766   1.957       .  S
Zn764       O769   2.063       .  S
Zn764       O772   2.063       .  S
Zn764       O775   2.063       .  S
Zn765       O766   1.965       .  S
Zn765       O773   2.015       .  S
Zn765       O776   1.998       .  S
Zn765       O777   1.997       .  S
O767        C779   1.269       .  A
O768        C780   1.273       .  A
O769        C781   1.281       .  A
O770        C779   1.268       .  A
O771        C781   1.273       .  A
O772        C780   1.281       .  A
O773        C782   1.273       .  A
O774        C783   1.268       .  A
O775        C782   1.281       .  A
O776        C783   1.269       .  A
O777        C784   1.268       .  A
O778        C784   1.268       .  A
C779        C904   1.425       .  S
C780        C862   1.479       .  S
C781        C859   1.480       .  S
C782        C858   1.480       .  S
C784       C1084   1.425       .  S
Zn785       O789   1.962       .  S
Zn785       O790   2.010       .  S
Zn785       O794   1.997       .  S
Zn785       O801   1.998       .  S
Zn786       O789   1.964       .  S
Zn786       O791   2.060       .  S
Zn786       O793   2.060       .  S
Zn786       O797   2.060       .  S
Zn787       O789   1.962       .  S
Zn787       O792   1.998       .  S
Zn787       O795   2.011       .  S
Zn787       O798   1.998       .  S
Zn788       O789   1.962       .  S
Zn788       O796   1.997       .  S
Zn788       O799   2.011       .  S
Zn788       O800   1.998       .  S
O790        C802   1.272       .  A
O791        C803   1.279       .  A
O792        C804   1.268       .  A
O793        C802   1.279       .  A
O794        C804   1.268       .  A
O795        C803   1.272       .  A
O796        C805   1.268       .  A
O797        C806   1.279       .  A
O798        C805   1.268       .  A
O799        C806   1.272       .  A
O800        C807   1.268       .  A
O801        C807   1.268       .  A
C802        C883   1.469       .  S
C803        C881   1.469       .  S
C804        C897   1.425       .  S
C806        C882   1.469       .  S
C807       C1441   1.425       .  S
C808        H809   1.113       .  S
C808        C814   1.526       .  S
C808        C813   1.526       .  S
C808        C812   1.526       .  S
C810        H811   1.113       .  S
C810        C816   1.526       .  S
C810        C815   1.526       .  S
C810        C817   1.526       .  S
C812        C815   1.367       .  D
C812        C887   1.433       .  S
C813        C816   1.367       .  D
C813        C892   1.433       .  S
C814        C817   1.367       .  D
C814        C889   1.433       .  S
C815        C896   1.433       .  S
C816        C898   1.433       .  S
C817        C894   1.433       .  S
Zn818       O822   1.962       .  S
Zn818       O823   1.998       .  S
Zn818       O827   2.011       .  S
Zn818       O834   1.998       .  S
Zn819       O822   1.962       .  S
Zn819       O824   2.011       .  S
Zn819       O826   1.998       .  S
Zn819       O830   1.998       .  S
Zn820       O822   1.964       .  S
Zn820       O825   2.060       .  S
Zn820       O828   2.060       .  S
Zn820       O831   2.060       .  S
Zn821       O822   1.962       .  S
Zn821       O829   2.011       .  S
Zn821       O832   1.998       .  S
Zn821       O833   1.997       .  S
O823        C835   1.268       .  A
O824        C836   1.272       .  A
O825        C837   1.279       .  A
O826        C835   1.268       .  A
O827        C837   1.272       .  A
O828        C836   1.279       .  A
O829        C838   1.272       .  A
O830        C839   1.268       .  A
O831        C838   1.279       .  A
O832        C839   1.268       .  A
O833        C840   1.268       .  A
O834        C840   1.268       .  A
C835        C891   1.425       .  S
C836        C863   1.469       .  S
C837        C860   1.469       .  S
C838        C861   1.469       .  S
C840       C1434   1.425       .  S
Zn841      O1027   1.977       .  S
Zn841       O846   2.017   1_554  S
Zn841      O1039   2.034       .  S
Zn842       O845   1.972   1_556  S
Zn842       O853   2.058       .  S
Zn843      O1573   1.978       .  S
Zn843       O848   2.034       .  S
Zn843       O851   2.017   1_554  S
Zn843      O1036   2.034       .  S
Zn844       O845   1.978       .  S
Zn844       O855   2.017   1_554  S
Zn844       O856   2.034       .  S
O846        C858   1.272       .  A
O847      Zn1570   2.058       .  S
O847        C859   1.279       .  A
O848        C860   1.275       .  A
O849      Zn1024   2.059       .  S
O849        C858   1.279       .  A
O850      Zn1387   2.034       .  S
O850        C860   1.274       .  A
O851        C859   1.272       .  A
O852      Zn1390   2.034       .  S
O852        C861   1.274       .  A
O853        C862   1.279       .  A
O854        C861   1.274       .  A
O855        C862   1.272       .  A
O856        C863   1.274       .  A
O857        C863   1.274       .  A
Zn864       O868   1.978       .  S
Zn864      O1051   2.034       .  S
Zn864       O880   2.017       .  S
Zn865       O872   2.034       .  S
Zn865       O876   2.017       .  S
Zn866      O1414   1.978       .  S
Zn866       O871   2.034       .  S
Zn866      O1056   2.034       .  S
Zn866       O877   2.017       .  S
Zn867       O868   1.972       .  S
Zn867      O1060   2.059       .  S
Zn867       O879   2.059       .  S
O868      Zn1047   1.977       .  S
O869        C881   1.274       .  A
O870      Zn1411   2.034       .  S
O870        C882   1.275       .  A
O871        C883   1.274       .  A
O872        C881   1.275       .  A
O873      Zn1410   2.033       .  S
O873        C883   1.274       .  A
O874        C882   1.275       .  A
O875      Zn1413   2.058       .  S
O875        C884   1.279       .  A
O876        C885   1.272       .  A
O877        C884   1.272       .  A
O878        C885   1.279       .  A
O879        C886   1.279       .  A
O880        C886   1.272       .  A
C887        C888   1.200       .  T
C889        C890   1.200       .  T
C890       C1021   1.425       .  S
C891        C892   1.200       .  T
C893        C987   1.425       .  S
C893        C894   1.200       .  T
C895        C896   1.200       .  T
C897        C898   1.200       .  T
C899       C1329   1.425       .  S
C899        C900   1.200       .  T
C901        C902   1.199       .  T
C903        C904   1.200       .  T
C905        C906   1.199       .  T
C906       C1297   1.425       .  S
C907        C908   1.200       .  T
C909        C910   1.199       .  T
Zn911       O915   1.965       .  S
Zn911       O916   2.015       .  S
Zn911       O920   1.998       .  S
Zn911       O927   1.997       .  S
Zn912       O915   1.957       .  S
Zn912       O917   2.063       .  S
Zn912       O919   2.063       .  S
Zn912       O923   2.063       .  S
Zn913       O915   1.965       .  S
Zn913       O918   1.998       .  S
Zn913       O921   2.014       .  S
Zn913       O924   1.997       .  S
Zn914       O915   1.965       .  S
Zn914       O922   1.997       .  S
Zn914       O925   2.015       .  S
Zn914       O926   1.997       .  S
O916        C928   1.273       .  A
O917        C929   1.281       .  A
O918        C930   1.269       .  A
O919        C928   1.281       .  A
O920        C930   1.268       .  A
O921        C929   1.273       .  A
O922        C931   1.269       .  A
O923        C932   1.281       .  A
O924        C931   1.268       .  A
O925        C932   1.273       .  A
O926        C933   1.269       .  A
O927        C933   1.268       .  A
C928       C1068   1.480       .  S
C929       C1066   1.479       .  S
C931       C1092   1.425       .  S
C932       C1067   1.480       .  S
C934        H935   1.113       .  S
C934        C940   1.526       .  S
C934        C939   1.526       .  S
C934        C938   1.526       .  S
C936        H937   1.113       .  S
C936        C942   1.526       .  S
C936        C941   1.526       .  S
C936        C943   1.526       .  S
C938        C941   1.367       .  D
C938       C1089   1.433       .  S
C939        C942   1.367       .  D
C939       C1087   1.433       .  S
C940        C943   1.367       .  D
C940       C1091   1.433       .  S
C941       C1083   1.432       .  S
C942       C1082   1.433       .  S
C943       C1085   1.433       .  S
Zn944       O948   1.965       .  S
Zn944       O949   1.998       .  S
Zn944       O953   2.015       .  S
Zn944       O960   1.997       .  S
Zn945       O948   1.965       .  S
Zn945       O950   2.014       .  S
Zn945       O952   1.997       .  S
Zn945       O956   1.997       .  S
Zn946       O948   1.957       .  S
Zn946       O951   2.063       .  S
Zn946       O954   2.063       .  S
Zn946       O957   2.063       .  S
Zn947       O948   1.965       .  S
Zn947       O955   2.015       .  S
Zn947       O958   1.998       .  S
Zn947       O959   1.997       .  S
O949        C961   1.269       .  A
O950        C962   1.273       .  A
O951        C963   1.281       .  A
O952        C961   1.268       .  A
O953        C963   1.273       .  A
O954        C962   1.281       .  A
O955        C964   1.273       .  A
O956        C965   1.268       .  A
O957        C964   1.281       .  A
O958        C965   1.269       .  A
O959        C966   1.268       .  A
O960        C966   1.268       .  A
C961       C1086   1.425       .  S
C962       C1044   1.479       .  S
C963       C1041   1.480       .  S
C964       C1040   1.480       .  S
Zn967       O971   1.962       .  S
Zn967       O972   2.010       .  S
Zn967       O976   1.997       .  S
Zn967       O983   1.998       .  S
Zn968       O971   1.964       .  S
Zn968       O973   2.060       .  S
Zn968       O975   2.060       .  S
Zn968       O979   2.060       .  S
Zn969       O971   1.962       .  S
Zn969       O974   1.998       .  S
Zn969       O977   2.011       .  S
Zn969       O980   1.998       .  S
Zn970       O971   1.962       .  S
Zn970       O978   1.997       .  S
Zn970       O981   2.011       .  S
Zn970       O982   1.998       .  S
O972        C984   1.272       .  A
O973        C985   1.279       .  A
O974        C986   1.268       .  A
O975        C984   1.279       .  A
O976        C986   1.268       .  A
O977        C985   1.272       .  A
O978        C987   1.268       .  A
O979        C988   1.279       .  A
O980        C987   1.268       .  A
O981        C988   1.272       .  A
O982        C989   1.268       .  A
O983        C989   1.268       .  A
C984       C1065   1.469       .  S
C985       C1063   1.469       .  S
C986       C1079   1.425       .  S
C988       C1064   1.469       .  S
C989       C1623   1.425       .  S
C990        H991   1.113       .  S
C990        C996   1.526       .  S
C990        C995   1.526       .  S
C990        C994   1.526       .  S
C992        H993   1.113       .  S
C992        C998   1.526       .  S
C992        C997   1.526       .  S
C992        C999   1.526       .  S
C994        C997   1.367       .  D
C994       C1069   1.433       .  S
C995        C998   1.367       .  D
C995       C1074   1.433       .  S
C996        C999   1.367       .  D
C996       C1071   1.433       .  S
C997       C1078   1.433       .  S
C998       C1080   1.433       .  S
C999       C1076   1.433       .  S
Zn1000     O1004   1.962       .  S
Zn1000     O1005   1.998       .  S
Zn1000     O1009   2.011       .  S
Zn1000     O1016   1.998       .  S
Zn1001     O1004   1.962       .  S
Zn1001     O1006   2.011       .  S
Zn1001     O1008   1.998       .  S
Zn1001     O1012   1.998       .  S
Zn1002     O1004   1.964       .  S
Zn1002     O1007   2.060       .  S
Zn1002     O1010   2.060       .  S
Zn1002     O1013   2.060       .  S
Zn1003     O1004   1.962       .  S
Zn1003     O1011   2.011       .  S
Zn1003     O1014   1.998       .  S
Zn1003     O1015   1.997       .  S
O1005      C1017   1.268       .  A
O1006      C1018   1.272       .  A
O1007      C1019   1.279       .  A
O1008      C1017   1.268       .  A
O1009      C1019   1.272       .  A
O1010      C1018   1.279       .  A
O1011      C1020   1.272       .  A
O1012      C1021   1.268       .  A
O1013      C1020   1.279       .  A
O1014      C1021   1.268       .  A
O1015      C1022   1.268       .  A
O1016      C1022   1.268       .  A
C1017      C1073   1.425       .  S
C1018      C1045   1.469       .  S
C1019      C1042   1.469       .  S
C1020      C1043   1.469       .  S
C1022      C1616   1.425       .  S
Zn1023     O1028   2.017   1_554  S
Zn1024     O1027   1.972   1_556  S
Zn1024     O1035   2.058       .  S
Zn1025     O1209   1.978   1_565  S
Zn1025     O1030   2.034       .  S
Zn1025     O1033   2.017   1_554  S
Zn1026     O1027   1.978       .  S
Zn1026     O1037   2.017   1_554  S
Zn1026     O1038   2.034       .  S
O1028      C1040   1.272       .  A
O1029     Zn1206   2.058   1_565  S
O1029      C1041   1.279       .  A
O1030      C1042   1.275       .  A
O1031      C1040   1.279       .  A
O1032     Zn1569   2.034       .  S
O1032      C1042   1.274       .  A
O1033      C1041   1.272       .  A
O1034     Zn1572   2.034       .  S
O1034      C1043   1.274       .  A
O1035      C1044   1.279       .  A
O1036      C1043   1.274       .  A
O1037      C1044   1.272       .  A
O1038      C1045   1.274       .  A
O1039      C1045   1.274       .  A
Zn1046     O1050   1.978   1_565  S
Zn1046     O1062   2.017       .  S
Zn1047     O1054   2.034       .  S
Zn1047     O1058   2.017       .  S
Zn1048     O1596   1.978   1_565  S
Zn1048     O1053   2.034       .  S
Zn1048     O1059   2.017       .  S
Zn1049     O1050   1.972       .  S
Zn1049     O1061   2.059   1_545  S
O1051      C1063   1.274       .  A
O1052     Zn1593   2.034       .  S
O1052      C1064   1.275       .  A
O1053      C1065   1.274       .  A
O1054      C1063   1.275       .  A
O1055     Zn1592   2.033       .  S
O1055      C1065   1.274       .  A
O1056      C1064   1.275       .  A
O1057     Zn1595   2.058   1_565  S
O1057      C1066   1.279       .  A
O1058      C1067   1.272       .  A
O1059      C1066   1.272       .  A
O1060      C1067   1.279       .  A
O1061      C1068   1.279       .  A
O1062      C1068   1.272       .  A
C1069      C1070   1.200       .  T
C1071      C1072   1.200       .  T
C1073      C1074   1.200       .  T
C1075      C1076   1.200       .  T
C1077      C1078   1.200       .  T
C1079      C1080   1.200       .  T
C1081      C1511   1.425       .  S
C1081      C1082   1.200       .  T
C1083      C1084   1.199       .  T
C1085      C1086   1.200       .  T
C1087      C1088   1.199       .  T
C1088      C1479   1.425       .  S
C1089      C1090   1.200       .  T
C1091      C1092   1.199       .  T
Zn1093     O1097   1.965       .  S
Zn1093     O1098   2.015       .  S
Zn1093     O1102   1.998       .  S
Zn1093     O1109   1.997       .  S
Zn1094     O1097   1.957       .  S
Zn1094     O1099   2.063       .  S
Zn1094     O1101   2.063       .  S
Zn1094     O1105   2.063       .  S
Zn1095     O1097   1.965       .  S
Zn1095     O1100   1.998       .  S
Zn1095     O1103   2.014       .  S
Zn1095     O1106   1.997       .  S
Zn1096     O1097   1.965       .  S
Zn1096     O1104   1.997       .  S
Zn1096     O1107   2.015       .  S
Zn1096     O1108   1.997       .  S
O1098      C1110   1.273       .  A
O1099      C1111   1.281       .  A
O1100      C1112   1.269       .  A
O1101      C1110   1.281       .  A
O1102      C1112   1.268       .  A
O1103      C1111   1.273       .  A
O1104      C1113   1.269       .  A
O1105      C1114   1.281       .  A
O1106      C1113   1.268       .  A
O1107      C1114   1.273       .  A
O1108      C1115   1.269       .  A
O1109      C1115   1.268       .  A
C1110      C1250   1.480       .  S
C1111      C1248   1.479       .  S
C1112      C1454   1.425       .  S
C1113      C1274   1.425       .  S
C1114      C1249   1.480       .  S
C1116      H1117   1.113       .  S
C1116      C1122   1.526       .  S
C1116      C1121   1.526       .  S
C1116      C1120   1.526       .  S
C1118      H1119   1.113       .  S
C1118      C1124   1.526       .  S
C1118      C1123   1.526       .  S
C1118      C1125   1.526       .  S
C1120      C1123   1.367       .  D
C1120      C1271   1.433       .  S
C1121      C1124   1.367       .  D
C1121      C1269   1.433       .  S
C1122      C1125   1.367       .  D
C1122      C1273   1.433       .  S
C1123      C1265   1.432       .  S
C1124      C1264   1.433       .  S
C1125      C1267   1.433       .  S
Zn1126     O1130   1.965       .  S
Zn1126     O1131   1.998       .  S
Zn1126     O1135   2.015       .  S
Zn1126     O1142   1.997       .  S
Zn1127     O1130   1.965       .  S
Zn1127     O1132   2.014       .  S
Zn1127     O1134   1.997       .  S
Zn1127     O1138   1.997       .  S
Zn1128     O1130   1.957       .  S
Zn1128     O1133   2.063       .  S
Zn1128     O1136   2.063       .  S
Zn1128     O1139   2.063       .  S
Zn1129     O1130   1.965       .  S
Zn1129     O1137   2.015       .  S
Zn1129     O1140   1.998       .  S
Zn1129     O1141   1.997       .  S
O1131      C1143   1.269       .  A
O1132      C1144   1.273       .  A
O1133      C1145   1.281       .  A
O1134      C1143   1.268       .  A
O1135      C1145   1.273       .  A
O1136      C1144   1.281       .  A
O1137      C1146   1.273       .  A
O1138      C1147   1.268       .  A
O1139      C1146   1.281       .  A
O1140      C1147   1.269       .  A
O1141      C1148   1.268       .  A
O1142      C1148   1.268       .  A
C1143      C1268   1.425       .  S
C1144      C1226   1.479       .  S
C1145      C1223   1.480       .  S
C1146      C1222   1.480       .  S
C1148      C1448   1.425       .  S
Zn1149     O1153   1.962       .  S
Zn1149     O1154   2.010       .  S
Zn1149     O1158   1.997       .  S
Zn1149     O1165   1.998       .  S
Zn1150     O1153   1.964       .  S
Zn1150     O1155   2.060       .  S
Zn1150     O1157   2.060       .  S
Zn1150     O1161   2.060       .  S
Zn1151     O1153   1.962       .  S
Zn1151     O1156   1.998       .  S
Zn1151     O1159   2.011       .  S
Zn1151     O1162   1.998       .  S
Zn1152     O1153   1.962       .  S
Zn1152     O1160   1.997       .  S
Zn1152     O1163   2.011       .  S
Zn1152     O1164   1.998       .  S
O1154      C1166   1.272       .  A
O1155      C1167   1.279       .  A
O1156      C1168   1.268       .  A
O1157      C1166   1.279       .  A
O1158      C1168   1.268       .  A
O1159      C1167   1.272       .  A
O1160      C1169   1.268       .  A
O1161      C1170   1.279       .  A
O1162      C1169   1.268       .  A
O1163      C1170   1.272       .  A
O1164      C1171   1.268       .  A
O1165      C1171   1.268       .  A
C1166      C1247   1.469       .  S
C1167      C1245   1.469       .  S
C1168      C1261   1.425       .  S
C1169      C1621   1.425   1_545  S
C1170      C1246   1.469       .  S
C1172      H1173   1.113       .  S
C1172      C1178   1.526       .  S
C1172      C1177   1.526       .  S
C1172      C1176   1.526       .  S
C1174      H1175   1.113       .  S
C1174      C1180   1.526       .  S
C1174      C1179   1.526       .  S
C1174      C1181   1.526       .  S
C1176      C1179   1.367       .  D
C1176      C1251   1.433       .  S
C1177      C1180   1.367       .  D
C1177      C1256   1.433       .  S
C1178      C1181   1.367       .  D
C1178      C1253   1.433       .  S
C1179      C1260   1.433       .  S
C1180      C1262   1.433       .  S
C1181      C1258   1.433       .  S
Zn1182     O1186   1.962       .  S
Zn1182     O1187   1.998       .  S
Zn1182     O1191   2.011       .  S
Zn1182     O1198   1.998       .  S
Zn1183     O1186   1.962       .  S
Zn1183     O1188   2.011       .  S
Zn1183     O1190   1.998       .  S
Zn1183     O1194   1.998       .  S
Zn1184     O1186   1.964       .  S
Zn1184     O1189   2.060       .  S
Zn1184     O1192   2.060       .  S
Zn1184     O1195   2.060       .  S
Zn1185     O1186   1.962       .  S
Zn1185     O1193   2.011       .  S
Zn1185     O1196   1.998       .  S
Zn1185     O1197   1.997       .  S
O1187      C1199   1.268       .  A
O1188      C1200   1.272       .  A
O1189      C1201   1.279       .  A
O1190      C1199   1.268       .  A
O1191      C1201   1.272       .  A
O1192      C1200   1.279       .  A
O1193      C1202   1.272       .  A
O1194      C1203   1.268       .  A
O1195      C1202   1.279       .  A
O1196      C1203   1.268       .  A
O1197      C1204   1.268       .  A
O1198      C1204   1.268       .  A
C1199      C1255   1.425       .  S
C1200      C1227   1.469       .  S
C1201      C1224   1.469       .  S
C1202      C1225   1.469       .  S
C1203      C1618   1.425   1_545  S
Zn1205     O1391   1.977       .  S
Zn1205     O1210   2.017   1_554  S
Zn1205     O1403   2.034       .  S
Zn1206     O1209   1.972   1_556  S
Zn1206     O1577   2.059   1_545  S
Zn1206     O1217   2.058       .  S
Zn1207     O1212   2.034       .  S
Zn1207     O1215   2.017   1_554  S
Zn1207     O1400   2.034       .  S
Zn1208     O1209   1.978       .  S
Zn1208     O1219   2.017   1_554  S
Zn1208     O1220   2.034       .  S
O1209     Zn1569   1.977   1_545  S
O1210      C1222   1.272       .  A
O1211      C1223   1.279       .  A
O1212      C1224   1.275       .  A
O1213     Zn1388   2.059       .  S
O1213      C1222   1.279       .  A
O1214      C1224   1.274       .  A
O1215      C1223   1.272       .  A
O1216      C1225   1.274       .  A
O1217      C1226   1.279       .  A
O1218     Zn1571   2.034   1_545  S
O1218      C1225   1.274       .  A
O1219      C1226   1.272       .  A
O1220      C1227   1.274       .  A
O1221     Zn1569   2.034   1_545  S
O1221      C1227   1.274       .  A
Zn1228     O1232   1.978       .  S
Zn1228     O1415   2.034       .  S
Zn1228     O1244   2.017       .  S
Zn1229     O1596   1.977       .  S
Zn1229     O1236   2.034       .  S
Zn1229     O1240   2.017       .  S
Zn1230     O1235   2.034       .  S
Zn1230     O1420   2.034       .  S
Zn1230     O1241   2.017       .  S
Zn1231     O1232   1.972       .  S
Zn1231     O1424   2.059       .  S
Zn1231     O1243   2.059       .  S
O1232     Zn1411   1.977       .  S
O1233     Zn1592   2.034   1_545  S
O1233      C1245   1.274       .  A
O1234      C1246   1.275       .  A
O1235      C1247   1.274       .  A
O1236      C1245   1.275       .  A
O1237      C1247   1.274       .  A
O1238     Zn1594   2.034   1_545  S
O1238      C1246   1.275       .  A
O1239      C1248   1.279       .  A
O1240      C1249   1.272       .  A
O1241      C1248   1.272       .  A
O1242     Zn1595   2.059       .  S
O1242      C1249   1.279       .  A
O1243      C1250   1.279       .  A
O1244      C1250   1.272       .  A
C1251      C1252   1.200       .  T
C1253      C1254   1.200       .  T
C1254      C1385   1.425       .  S
C1255      C1256   1.200       .  T
C1257      C1351   1.425       .  S
C1257      C1258   1.200       .  T
C1259      C1260   1.200       .  T
C1261      C1262   1.200       .  T
C1263      C1264   1.200       .  T
C1265      C1266   1.199       .  T
C1266      C1512   1.425   1_545  S
C1267      C1268   1.200       .  T
C1269      C1270   1.199       .  T
C1271      C1272   1.200       .  T
C1272      C1476   1.425   1_545  S
C1273      C1274   1.199       .  T
Zn1275     O1279   1.965       .  S
Zn1275     O1280   2.015       .  S
Zn1275     O1284   1.998       .  S
Zn1275     O1291   1.997       .  S
Zn1276     O1279   1.957       .  S
Zn1276     O1281   2.063       .  S
Zn1276     O1283   2.063       .  S
Zn1276     O1287   2.063       .  S
Zn1277     O1279   1.965       .  S
Zn1277     O1282   1.998       .  S
Zn1277     O1285   2.014       .  S
Zn1277     O1288   1.997       .  S
Zn1278     O1279   1.965       .  S
Zn1278     O1286   1.997       .  S
Zn1278     O1289   2.015       .  S
Zn1278     O1290   1.997       .  S
O1280      C1292   1.273       .  A
O1281      C1293   1.281       .  A
O1282      C1294   1.269       .  A
O1283      C1292   1.281       .  A
O1284      C1294   1.268       .  A
O1285      C1293   1.273       .  A
O1286      C1295   1.269       .  A
O1287      C1296   1.281       .  A
O1288      C1295   1.268       .  A
O1289      C1296   1.273       .  A
O1290      C1297   1.269       .  A
O1291      C1297   1.268       .  A
C1292      C1432   1.480       .  S
C1293      C1430   1.479       .  S
C1294      C1636   1.425       .  S
C1295      C1456   1.425       .  S
C1296      C1431   1.480       .  S
C1298      H1299   1.113       .  S
C1298      C1304   1.526       .  S
C1298      C1303   1.526       .  S
C1298      C1302   1.526       .  S
C1300      H1301   1.113       .  S
C1300      C1306   1.526       .  S
C1300      C1305   1.526       .  S
C1300      C1307   1.526       .  S
C1302      C1305   1.367       .  D
C1302      C1453   1.433       .  S
C1303      C1306   1.367       .  D
C1303      C1451   1.433       .  S
C1304      C1307   1.367       .  D
C1304      C1455   1.433       .  S
C1305      C1447   1.432       .  S
C1306      C1446   1.433       .  S
C1307      C1449   1.433       .  S
Zn1308     O1312   1.965       .  S
Zn1308     O1313   1.998       .  S
Zn1308     O1317   2.015       .  S
Zn1308     O1324   1.997       .  S
Zn1309     O1312   1.965       .  S
Zn1309     O1314   2.014       .  S
Zn1309     O1316   1.997       .  S
Zn1309     O1320   1.997       .  S
Zn1310     O1312   1.957       .  S
Zn1310     O1315   2.063       .  S
Zn1310     O1318   2.063       .  S
Zn1310     O1321   2.063       .  S
Zn1311     O1312   1.965       .  S
Zn1311     O1319   2.015       .  S
Zn1311     O1322   1.998       .  S
Zn1311     O1323   1.997       .  S
O1313      C1325   1.269       .  A
O1314      C1326   1.273       .  A
O1315      C1327   1.281       .  A
O1316      C1325   1.268       .  A
O1317      C1327   1.273       .  A
O1318      C1326   1.281       .  A
O1319      C1328   1.273       .  A
O1320      C1329   1.268       .  A
O1321      C1328   1.281       .  A
O1322      C1329   1.269       .  A
O1323      C1330   1.268       .  A
O1324      C1330   1.268       .  A
C1325      C1450   1.425       .  S
C1326      C1408   1.479       .  S
C1327      C1405   1.480       .  S
C1328      C1404   1.480       .  S
C1330      C1630   1.425       .  S
Zn1331     O1335   1.962       .  S
Zn1331     O1336   2.010       .  S
Zn1331     O1340   1.997       .  S
Zn1331     O1347   1.998       .  S
Zn1332     O1335   1.964       .  S
Zn1332     O1337   2.060       .  S
Zn1332     O1339   2.060       .  S
Zn1332     O1343   2.060       .  S
Zn1333     O1335   1.962       .  S
Zn1333     O1338   1.998       .  S
Zn1333     O1341   2.011       .  S
Zn1333     O1344   1.998       .  S
Zn1334     O1335   1.962       .  S
Zn1334     O1342   1.997       .  S
Zn1334     O1345   2.011       .  S
Zn1334     O1346   1.998       .  S
O1336      C1348   1.272       .  A
O1337      C1349   1.279       .  A
O1338      C1350   1.268       .  A
O1339      C1348   1.279       .  A
O1340      C1350   1.268       .  A
O1341      C1349   1.272       .  A
O1342      C1351   1.268       .  A
O1343      C1352   1.279       .  A
O1344      C1351   1.268       .  A
O1345      C1352   1.272       .  A
O1346      C1353   1.268       .  A
O1347      C1353   1.268       .  A
C1348      C1429   1.469       .  S
C1349      C1427   1.469       .  S
C1350      C1443   1.425       .  S
C1352      C1428   1.469       .  S
C1354      H1355   1.113       .  S
C1354      C1360   1.526       .  S
C1354      C1359   1.526       .  S
C1354      C1358   1.526       .  S
C1356      H1357   1.113       .  S
C1356      C1362   1.526       .  S
C1356      C1361   1.526       .  S
C1356      C1363   1.526       .  S
C1358      C1361   1.367       .  D
C1358      C1433   1.433       .  S
C1359      C1362   1.367       .  D
C1359      C1438   1.433       .  S
C1360      C1363   1.367       .  D
C1360      C1435   1.433       .  S
C1361      C1442   1.433       .  S
C1362      C1444   1.433       .  S
C1363      C1440   1.433       .  S
Zn1364     O1368   1.962       .  S
Zn1364     O1369   1.998       .  S
Zn1364     O1373   2.011       .  S
Zn1364     O1380   1.998       .  S
Zn1365     O1368   1.962       .  S
Zn1365     O1370   2.011       .  S
Zn1365     O1372   1.998       .  S
Zn1365     O1376   1.998       .  S
Zn1366     O1368   1.964       .  S
Zn1366     O1371   2.060       .  S
Zn1366     O1374   2.060       .  S
Zn1366     O1377   2.060       .  S
Zn1367     O1368   1.962       .  S
Zn1367     O1375   2.011       .  S
Zn1367     O1378   1.998       .  S
Zn1367     O1379   1.997       .  S
O1369      C1381   1.268       .  A
O1370      C1382   1.272       .  A
O1371      C1383   1.279       .  A
O1372      C1381   1.268       .  A
O1373      C1383   1.272       .  A
O1374      C1382   1.279       .  A
O1375      C1384   1.272       .  A
O1376      C1385   1.268       .  A
O1377      C1384   1.279       .  A
O1378      C1385   1.268       .  A
O1379      C1386   1.268       .  A
O1380      C1386   1.268       .  A
C1381      C1437   1.425       .  S
C1382      C1409   1.469       .  S
C1383      C1406   1.469       .  S
C1384      C1407   1.469       .  S
Zn1387     O1573   1.977       .  S
Zn1387     O1392   2.017   1_554  S
Zn1387     O1585   2.034       .  S
Zn1388     O1391   1.972   1_556  S
Zn1388     O1399   2.058       .  S
Zn1389     O1394   2.034       .  S
Zn1389     O1397   2.017   1_554  S
Zn1389     O1582   2.034       .  S
Zn1390     O1391   1.978       .  S
Zn1390     O1401   2.017   1_554  S
Zn1390     O1402   2.034       .  S
O1392      C1404   1.272       .  A
O1393      C1405   1.279       .  A
O1394      C1406   1.275       .  A
O1395     Zn1570   2.059       .  S
O1395      C1404   1.279       .  A
O1396      C1406   1.274       .  A
O1397      C1405   1.272       .  A
O1398      C1407   1.274       .  A
O1399      C1408   1.279       .  A
O1400      C1407   1.274       .  A
O1401      C1408   1.272       .  A
O1402      C1409   1.274       .  A
O1403      C1409   1.274       .  A
Zn1410     O1414   1.978       .  S
Zn1410     O1597   2.034       .  S
Zn1410     O1426   2.017       .  S
Zn1411     O1418   2.034       .  S
Zn1411     O1422   2.017       .  S
Zn1412     O1417   2.034       .  S
Zn1412     O1602   2.034       .  S
Zn1412     O1423   2.017       .  S
Zn1413     O1414   1.972       .  S
Zn1413     O1606   2.059       .  S
Zn1413     O1425   2.059       .  S
O1414     Zn1593   1.977       .  S
O1415      C1427   1.274       .  A
O1416      C1428   1.275       .  A
O1417      C1429   1.274       .  A
O1418      C1427   1.275       .  A
O1419      C1429   1.274       .  A
O1420      C1428   1.275       .  A
O1421      C1430   1.279       .  A
O1422      C1431   1.272       .  A
O1423      C1430   1.272       .  A
O1424      C1431   1.279       .  A
O1425      C1432   1.279       .  A
O1426      C1432   1.272       .  A
C1433      C1434   1.200       .  T
C1435      C1436   1.200       .  T
C1436      C1567   1.425       .  S
C1437      C1438   1.200       .  T
C1439      C1533   1.425       .  S
C1439      C1440   1.200       .  T
C1441      C1442   1.200       .  T
C1443      C1444   1.200       .  T
C1445      C1446   1.200       .  T
C1447      C1448   1.199       .  T
C1449      C1450   1.200       .  T
C1451      C1452   1.199       .  T
C1453      C1454   1.200       .  T
C1455      C1456   1.199       .  T
Zn1457     O1461   1.965       .  S
Zn1457     O1462   2.015       .  S
Zn1457     O1466   1.998       .  S
Zn1457     O1473   1.997       .  S
Zn1458     O1461   1.957       .  S
Zn1458     O1463   2.063       .  S
Zn1458     O1465   2.063       .  S
Zn1458     O1469   2.063       .  S
Zn1459     O1461   1.965       .  S
Zn1459     O1464   1.998       .  S
Zn1459     O1467   2.014       .  S
Zn1459     O1470   1.997       .  S
Zn1460     O1461   1.965       .  S
Zn1460     O1468   1.997       .  S
Zn1460     O1471   2.015       .  S
Zn1460     O1472   1.997       .  S
O1462      C1474   1.273       .  A
O1463      C1475   1.281       .  A
O1464      C1476   1.269       .  A
O1465      C1474   1.281       .  A
O1466      C1476   1.268       .  A
O1467      C1475   1.273       .  A
O1468      C1477   1.269       .  A
O1469      C1478   1.281       .  A
O1470      C1477   1.268       .  A
O1471      C1478   1.273       .  A
O1472      C1479   1.269       .  A
O1473      C1479   1.268       .  A
C1474      C1614   1.480       .  S
C1475      C1612   1.479       .  S
C1477      C1638   1.425       .  S
C1478      C1613   1.480       .  S
C1480      H1481   1.113       .  S
C1480      C1486   1.526       .  S
C1480      C1485   1.526       .  S
C1480      C1484   1.526       .  S
C1482      H1483   1.113       .  S
C1482      C1488   1.526       .  S
C1482      C1487   1.526       .  S
C1482      C1489   1.526       .  S
C1484      C1487   1.367       .  D
C1484      C1635   1.433       .  S
C1485      C1488   1.367       .  D
C1485      C1633   1.433       .  S
C1486      C1489   1.367       .  D
C1486      C1637   1.433       .  S
C1487      C1629   1.432       .  S
C1488      C1628   1.433       .  S
C1489      C1631   1.433       .  S
Zn1490     O1494   1.965       .  S
Zn1490     O1495   1.998       .  S
Zn1490     O1499   2.015       .  S
Zn1490     O1506   1.997       .  S
Zn1491     O1494   1.965       .  S
Zn1491     O1496   2.014       .  S
Zn1491     O1498   1.997       .  S
Zn1491     O1502   1.997       .  S
Zn1492     O1494   1.957       .  S
Zn1492     O1497   2.063       .  S
Zn1492     O1500   2.063       .  S
Zn1492     O1503   2.063       .  S
Zn1493     O1494   1.965       .  S
Zn1493     O1501   2.015       .  S
Zn1493     O1504   1.998       .  S
Zn1493     O1505   1.997       .  S
O1495      C1507   1.269       .  A
O1496      C1508   1.273       .  A
O1497      C1509   1.281       .  A
O1498      C1507   1.268       .  A
O1499      C1509   1.273       .  A
O1500      C1508   1.281       .  A
O1501      C1510   1.273       .  A
O1502      C1511   1.268       .  A
O1503      C1510   1.281       .  A
O1504      C1511   1.269       .  A
O1505      C1512   1.268       .  A
O1506      C1512   1.268       .  A
C1507      C1632   1.425       .  S
C1508      C1590   1.479       .  S
C1509      C1587   1.480       .  S
C1510      C1586   1.480       .  S
Zn1513     O1517   1.962       .  S
Zn1513     O1518   2.010       .  S
Zn1513     O1522   1.997       .  S
Zn1513     O1529   1.998       .  S
Zn1514     O1517   1.964       .  S
Zn1514     O1519   2.060       .  S
Zn1514     O1521   2.060       .  S
Zn1514     O1525   2.060       .  S
Zn1515     O1517   1.962       .  S
Zn1515     O1520   1.998       .  S
Zn1515     O1523   2.011       .  S
Zn1515     O1526   1.998       .  S
Zn1516     O1517   1.962       .  S
Zn1516     O1524   1.997       .  S
Zn1516     O1527   2.011       .  S
Zn1516     O1528   1.998       .  S
O1518      C1530   1.272       .  A
O1519      C1531   1.279       .  A
O1520      C1532   1.268       .  A
O1521      C1530   1.279       .  A
O1522      C1532   1.268       .  A
O1523      C1531   1.272       .  A
O1524      C1533   1.268       .  A
O1525      C1534   1.279       .  A
O1526      C1533   1.268       .  A
O1527      C1534   1.272       .  A
O1528      C1535   1.268       .  A
O1529      C1535   1.268       .  A
C1530      C1611   1.469       .  S
C1531      C1609   1.469       .  S
C1532      C1625   1.425       .  S
C1534      C1610   1.469       .  S
C1536      H1537   1.113       .  S
C1536      C1542   1.526       .  S
C1536      C1541   1.526       .  S
C1536      C1540   1.526       .  S
C1538      H1539   1.113       .  S
C1538      C1544   1.526       .  S
C1538      C1543   1.526       .  S
C1538      C1545   1.526       .  S
C1540      C1543   1.367       .  D
C1540      C1615   1.433       .  S
C1541      C1544   1.367       .  D
C1541      C1620   1.433       .  S
C1542      C1545   1.367       .  D
C1542      C1617   1.433       .  S
C1543      C1624   1.433       .  S
C1544      C1626   1.433       .  S
C1545      C1622   1.433       .  S
Zn1546     O1550   1.962       .  S
Zn1546     O1551   1.998       .  S
Zn1546     O1555   2.011       .  S
Zn1546     O1562   1.998       .  S
Zn1547     O1550   1.962       .  S
Zn1547     O1552   2.011       .  S
Zn1547     O1554   1.998       .  S
Zn1547     O1558   1.998       .  S
Zn1548     O1550   1.964       .  S
Zn1548     O1553   2.060       .  S
Zn1548     O1556   2.060       .  S
Zn1548     O1559   2.060       .  S
Zn1549     O1550   1.962       .  S
Zn1549     O1557   2.011       .  S
Zn1549     O1560   1.998       .  S
Zn1549     O1561   1.997       .  S
O1551      C1563   1.268       .  A
O1552      C1564   1.272       .  A
O1553      C1565   1.279       .  A
O1554      C1563   1.268       .  A
O1555      C1565   1.272       .  A
O1556      C1564   1.279       .  A
O1557      C1566   1.272       .  A
O1558      C1567   1.268       .  A
O1559      C1566   1.279       .  A
O1560      C1567   1.268       .  A
O1561      C1568   1.268       .  A
O1562      C1568   1.268       .  A
C1563      C1619   1.425       .  S
C1564      C1591   1.469       .  S
C1565      C1588   1.469       .  S
C1566      C1589   1.469       .  S
Zn1569     O1574   2.017   1_554  S
Zn1570     O1573   1.972   1_556  S
Zn1570     O1581   2.058       .  S
Zn1571     O1576   2.034       .  S
Zn1571     O1579   2.017   1_554  S
Zn1572     O1573   1.978       .  S
Zn1572     O1583   2.017   1_554  S
Zn1572     O1584   2.034       .  S
O1574      C1586   1.272       .  A
O1575      C1587   1.279       .  A
O1576      C1588   1.275       .  A
O1577      C1586   1.279       .  A
O1578      C1588   1.274       .  A
O1579      C1587   1.272       .  A
O1580      C1589   1.274       .  A
O1581      C1590   1.279       .  A
O1582      C1589   1.274       .  A
O1583      C1590   1.272       .  A
O1584      C1591   1.274       .  A
O1585      C1591   1.274       .  A
Zn1592     O1596   1.978   1_565  S
Zn1592     O1608   2.017       .  S
Zn1593     O1600   2.034       .  S
Zn1593     O1604   2.017       .  S
Zn1594     O1599   2.034       .  S
Zn1594     O1605   2.017       .  S
Zn1595     O1596   1.972       .  S
Zn1595     O1607   2.059   1_545  S
O1597      C1609   1.274       .  A
O1598      C1610   1.275       .  A
O1599      C1611   1.274       .  A
O1600      C1609   1.275       .  A
O1601      C1611   1.274       .  A
O1602      C1610   1.275       .  A
O1603      C1612   1.279       .  A
O1604      C1613   1.272       .  A
O1605      C1612   1.272       .  A
O1606      C1613   1.279       .  A
O1607      C1614   1.279       .  A
O1608      C1614   1.272       .  A
C1615      C1616   1.200       .  T
C1617      C1618   1.200       .  T
C1619      C1620   1.200       .  T
C1621      C1622   1.200       .  T
C1623      C1624   1.200       .  T
C1625      C1626   1.200       .  T
C1627      C1628   1.200       .  T
C1629      C1630   1.199       .  T
C1631      C1632   1.200       .  T
C1633      C1634   1.199       .  T
C1635      C1636   1.200       .  T
C1637      C1638   1.199       .  T
