geometry optimzed in LAMMPS
_audit_creation_date              2020-11-30 
_audit_creation_method            'lammps2cif' 
_symmetry_space_group_name_H-M    'P1' 
_symmetry_Int_Tables_number       1 
_symmetry_cell_setting            triclinic 
loop_ 
_symmetry_equiv_pos_as_xyz 
  x,y,z 
_cell_length_a                    24.42916275 
_cell_length_b                    52.00708211879127 
_cell_length_c                    39.45855784086071 
_cell_angle_alpha                 89.8653228979111 
_cell_angle_beta                  90.14452284410753 
_cell_angle_gamma                 72.69582743636774 
loop_ 
_atom_site_label 
_atom_site_type_symbol 
_atom_site_fract_x 
_atom_site_fract_y 
_atom_site_fract_z 
_atom_site_charge 
N1          N  0.97097316  0.35082463  0.49866262    -0.03500
C2          C  0.94792390  0.37198219  0.02242028    -0.00900
C3          C  0.39026609  0.37962495  0.03056586    -0.23800
C4          C  0.36894392  0.35959834  0.01900928    -0.24000
C5          C  0.42344483  0.34282710  0.49482757    -0.01000
H6          H  0.36663089  0.39759296  0.04402613     0.12800
H7          H  0.32526362  0.35889908  0.02124991     0.12800
N8          N  0.06963676  0.11227264  0.50277629    -0.03500
C9          C  0.08053344  0.07589417  0.99152292    -0.00900
C10         C  0.13893579  0.06533240  0.98610165    -0.23800
C11         C  0.16130609  0.10282481  0.52047171    -0.24000
C12         C  0.11983513  0.11812715  0.49870138    -0.01000
H13         H  0.16644797  0.04595268  0.99445520     0.12800
H14         H  0.20439247  0.10402973  0.52406777     0.12800
O15         O  0.35695477  0.24992746  0.40800073    -0.81800
C16         C  0.18135564  0.20431237  0.43673833     0.97500
O17         O  0.20640688  0.21442938  0.45882279    -0.70900
O18         O  0.31840029  0.19452508  0.45983309    -0.74500
Al19       Al  0.26788987  0.23016385  0.45557633     1.49000
C20         C  0.36708679  0.18569148  0.44651512     0.92800
O21         O  0.31868780  0.19228191  0.36585130    -0.80700
O22         O  0.21941483  0.26867634  0.36544732    -0.74300
Al23       Al  0.33468378  0.22168925  0.38801111     1.90100
O24         O  0.23220259  0.21558018  0.34927759    -0.73400
O25         O  0.15769456  0.26431644  0.41877051    -0.73200
O26         O  0.18110123  0.21040321  0.40581796    -0.78900
O27         O  0.21783072  0.26568558  0.45918008    -0.77100
O28         O  0.26852191  0.23033281  0.41041989    -1.13200
O29         O  0.32912796  0.24588437  0.46012464    -0.72400
C30         C  0.35639766  0.25576939  0.43902337     0.98300
C31         C  0.27574276  0.19514211  0.34682325     0.94700
Al32       Al  0.20295235  0.23910083  0.38688048     1.55600
O33         O  0.37865679  0.19648833  0.42001140    -0.77000
C34         C  0.16958773  0.27494653  0.44536521     0.98900
C35         C  0.26335963  0.26595607  0.34745134     0.93700
O36         O  0.30661694  0.24543526  0.35062625    -0.82400
N37         N  0.32495499  0.36033551  0.25033276    -0.03500
C38         C  0.34113970  0.33707871  0.26814783    -0.00900
C39         C  0.39938075  0.32966477  0.27485492    -0.23800
C40         C  0.41969537  0.34919220  0.26075415    -0.24000
C41         C  0.37306798  0.36768578  0.24602307    -0.01000
H42         H  0.42409671  0.31217085  0.28896658     0.12800
H43         H  0.46335177  0.35010798  0.26165325     0.12800
N44         N  0.22703820  0.10269998  0.23952022    -0.03500
C45         C  0.21013842  0.12756401  0.25356143    -0.00900
C46         C  0.15144771  0.13865994  0.25038852    -0.23800
C47         C  0.13147171  0.11997355  0.23392405    -0.24000
C48         C  0.17870946  0.09818209  0.22752858    -0.01000
H49         H  0.12563170  0.15765612  0.26068345     0.12800
H50         H  0.08709752  0.12153879  0.22865827     0.12800
O51         O  0.11547986  0.99882629  0.15516242    -0.81800
C52         C  0.43919221  0.45421932  0.18794243     0.97500
O53         O  0.46655612  0.46401453  0.20907295    -0.70900
O54         O  0.07731363  0.44441411  0.20898212    -0.74500
Al55       Al  0.02740751  0.47987408  0.20461011     1.49000
C56         C  0.12533740  0.43484399  0.19531631     0.92800
O57         O  0.07599777  0.44055743  0.11510828    -0.80700
O58         O  0.47782323  0.01709675  0.11339396    -0.74300
Al59       Al  0.09287489  0.47021041  0.13636291     1.90100
O60         O  0.48890964  0.46388326  0.09986492    -0.73400
O61         O  0.41725925  0.01405584  0.16762956    -0.73200
O62         O  0.43782393  0.46036071  0.15696844    -0.78900
O63         O  0.47694246  0.01535587  0.20839845    -0.77100
O64         O  0.02703836  0.47946642  0.15940935    -1.13200
O65         O  0.08859149  0.99588271  0.20783905    -0.72400
C66         C  0.11486075  0.00553855  0.18593693     0.98300
C67         C  0.03198607  0.44328392  0.09696412     0.94700
Al68       Al  0.46101830  0.48819122  0.13648097     1.55600
O69         O  0.13738292  0.44522387  0.16860762    -0.77000
C70         C  0.42900432  0.02460019  0.19422443     0.98900
C71         C  0.02081214  0.01344444  0.09435305     0.93700
O72         O  0.06446138  0.99325836  0.09832881    -0.82400
C73         C  0.30673336  0.06201595  0.25068634    -0.20300
C74         C  0.28449765  0.08608048  0.23259717    -0.06900
C75         C  0.31408213  0.09108277  0.20378033     0.14000
C76         C  0.36319737  0.07118790  0.19249440    -0.20400
C77         C  0.38403068  0.04672243  0.20992793    -0.06900
C78         C  0.35635466  0.04232692  0.23982294     0.14000
C79         C  0.37660846  0.01606111  0.25885748    -0.23700
H80         H  0.28336472  0.05793405  0.27223892     0.15300
H81         H  0.38448628  0.07438897  0.16949160     0.15300
C82         C  0.29261231  0.11703526  0.18427128    -0.23700
H83         H  0.34955831  0.01577067  0.28135637     0.05500
H84         H  0.42138615  0.01267838  0.26768181     0.08700
H85         H  0.37456167  0.49938952  0.24184891     0.08700
H86         H  0.29489266  0.13397958  0.20056596     0.08700
H87         H  0.24761358  0.12032415  0.17611032     0.08700
H88         H  0.31889610  0.11711723  0.16136571     0.05500
C89         C  0.14173576  0.04655782  0.17199491    -0.20300
C90         C  0.14163402  0.02651023  0.19593503    -0.06900
C91         C  0.16224874  0.02850252  0.22914173     0.14000
C92         C  0.17808011  0.05143767  0.23803896    -0.20400
C93         C  0.17412424  0.07225428  0.21468272    -0.06900
C94         C  0.15693775  0.06955892  0.18109523     0.14000
C95         C  0.15328648  0.09118368  0.15499924    -0.23700
H96         H  0.12687987  0.04497644  0.14640650     0.15300
H97         H  0.19033053  0.05387259  0.26397391     0.15300
C98         C  0.16761983  0.00676947  0.25539887    -0.23700
H99         H  0.13842411  0.08592342  0.13005292     0.05500
H100        H  0.19627222  0.09381759  0.15141807     0.08700
H101        H  0.12266916  0.11049023  0.16330904     0.08700
H102        H  0.19367119  0.98707373  0.24514927     0.08700
H103        H  0.12461773  0.00565986  0.26280642     0.08700
H104        H  0.18907023  0.01077045  0.27880372     0.05500
C105        C  0.38800682  0.39224668  0.19512057    -0.20300
C106        C  0.37628812  0.39261959  0.22980258    -0.06900
C107        C  0.37750455  0.41494279  0.24951748     0.14000
C108        C  0.39471119  0.43565363  0.23451289    -0.20400
C109        C  0.41037309  0.43462989  0.20016639    -0.06900
C110        C  0.40434217  0.41317147  0.17977707     0.14000
C111        C  0.41835255  0.41109999  0.14248419    -0.23700
H112        H  0.38779567  0.37471877  0.18041528     0.15300
H113        H  0.39842305  0.45212146  0.25016673     0.15300
C114        C  0.36303382  0.41636038  0.28670610    -0.23700
H115        H  0.41253563  0.39257719  0.13106134     0.05500
H116        H  0.96363863  0.41051968  0.13866242     0.08700
H117        H  0.38959661  0.42860969  0.12873873     0.08700
H118        H  0.39280450  0.39913693  0.30040109     0.08700
H119        H  0.31842345  0.41569335  0.29006969     0.08700
H120        H  0.36637774  0.43525166  0.29837837     0.05500
C121        C  0.20543509  0.39256688  0.19041559    -0.20300
C122        C  0.16957241  0.41222476  0.21135518    -0.06900
C123        C  0.18126259  0.41171984  0.24658446     0.14000
C124        C  0.23119822  0.39309184  0.25930737    -0.20400
C125        C  0.26887286  0.37473343  0.23791374    -0.06900
C126        C  0.25455351  0.37360442  0.20339888     0.14000
C127        C  0.29098786  0.35300177  0.17960217    -0.23700
H128        H  0.19603837  0.39251888  0.16355239     0.15300
H129        H  0.24262666  0.39378997  0.28572258     0.15300
C130        C  0.14353548  0.43177570  0.27058572    -0.23700
H131        H  0.26522483  0.34047895  0.16919027     0.05500
H132        H  0.32930967  0.33938734  0.19223143     0.08700
H133        H  0.30545830  0.36329584  0.15827531     0.08700
H134        H  0.09993762  0.42930747  0.27089549     0.08700
H135        H  0.14085684  0.45256328  0.26251900     0.08700
H136        H  0.16040558  0.42894425  0.29693395     0.05500
C137        C  0.26717662  0.15036433  0.33300410    -0.20300
C138        C  0.27472976  0.17456389  0.32159610    -0.06900
C139        C  0.27138925  0.18053509  0.28662999     0.14000
C140        C  0.25614901  0.16305256  0.26398458    -0.20400
C141        C  0.24458493  0.13970523  0.27558345    -0.06900
C142        C  0.25127633  0.13299840  0.31043520     0.14000
C143        C  0.23703294  0.10877832  0.32435407    -0.23700
H144        H  0.26930892  0.14610316  0.35996437     0.15300
H145        H  0.24892646  0.16873066  0.23754954     0.15300
C146        C  0.28201746  0.20580402  0.27341999    -0.23700
H147        H  0.24193539  0.10730608  0.35234988     0.05500
H148        H  0.26638631  0.09026080  0.31337449     0.08700
H149        H  0.19202116  0.10994419  0.31808262     0.08700
H150        H  0.32575957  0.20597634  0.28091685     0.08700
H151        H  0.24995860  0.22378156  0.28403374     0.08700
H152        H  0.27888691  0.20713310  0.24534669     0.05500
C153        C  0.29680637  0.27704123  0.29235519    -0.20300
C154        C  0.26636690  0.28636691  0.32217550    -0.08100
C155        C  0.24872864  0.31425394  0.32924405     0.14000
C156        C  0.26805844  0.33160101  0.30823052    -0.20400
C157        C  0.30384784  0.32155354  0.28050620    -0.06900
C158        C  0.31556815  0.29427270  0.27136899     0.14000
C159        C  0.35092911  0.28235117  0.24082403    -0.23700
H160        H  0.30946092  0.25576578  0.28650044     0.15300
H161        H  0.25988100  0.35247499  0.31544052     0.15300
C162        C  0.21389896  0.32544681  0.36022846    -0.23700
H163        H  0.32595601  0.27268137  0.22429118     0.05500
H164        H  0.39077465  0.26688293  0.24913390     0.08700
H165        H  0.36297587  0.29763540  0.22538145     0.08700
H166        H  0.23710680  0.31605672  0.38348250     0.08700
H167        H  0.17192945  0.32128776  0.35891598     0.08700
H168        H  0.20539065  0.34759275  0.36221488     0.05500
C169        C  0.18794299  0.15667203  0.43923524    -0.20300
C170        C  0.15687605  0.18314843  0.44720894    -0.06900
C171        C  0.10844856  0.18833172  0.46831148     0.14000
C172        C  0.09485256  0.16657955  0.48341478    -0.20400
C173        C  0.12892514  0.14000473  0.47770507    -0.06900
C174        C  0.17493887  0.13491656  0.45445116     0.14000
C175        C  0.21096064  0.10669721  0.44578246    -0.23700
H176        H  0.22472844  0.15305383  0.42260441     0.15300
H177        H  0.05955382  0.17043168  0.50110552     0.15300
C178        C  0.07177261  0.21670350  0.47505258    -0.23700
H179        H  0.24212215  0.10670220  0.42532614     0.05500
H180        H  0.18323158  0.09460306  0.43692541     0.08700
H181        H  0.23595021  0.09674854  0.46814332     0.08700
H182        H  0.05479170  0.22676147  0.45072521     0.08700
H183        H  0.09758402  0.22817448  0.48769391     0.08700
H184        H  0.09704426  0.19169257  0.02722243     0.05500
C185        C  0.45276626  0.14593439  0.44091020    -0.20300
C186        C  0.41290280  0.16343201  0.46234332    -0.06900
C187        C  0.42276270  0.16170785  0.49780058     0.14000
C188        C  0.47304792  0.14322184  0.51056767    -0.20400
C189        C  0.51456615  0.12710118  0.48885466    -0.06900
C190        C  0.50366179  0.12803285  0.45362182     0.14000
C191        C  0.54605218  0.11085776  0.42909229    -0.23700
H192        H  0.44531700  0.14721498  0.41377949     0.15300
H193        H  0.48205284  0.14256762  0.53750913     0.15300
C194        C  0.38289811  0.18055422  0.52212641    -0.23700
H195        H  0.52819041  0.11241627  0.40299693     0.05500
H196        H  0.55818281  0.08943705  0.43679400     0.08700
H197        H  0.58486660  0.11751986  0.42796934     0.08700
H198        H  0.33986971  0.17750067  0.52105934     0.08700
H199        H  0.37939742  0.20175250  0.51546142     0.08700
H200        H  0.39854297  0.17702602  0.54869189     0.05500
C201        C  0.03716880  0.02026278  0.03421411    -0.20300
C202        C  0.02089109  0.03183740  0.06603082    -0.06900
C203        C  0.51324563  0.05954478  0.07081666     0.14000
C204        C  0.52684273  0.07457905  0.04419834    -0.20400
C205        C  0.04856466  0.06228926  0.01336428    -0.06900
C206        C  0.05124048  0.03506840  0.00775899     0.14000
C207        C  0.07052233  0.02111772  0.97442810    -0.23700
H208        H  0.04185980  0.99903223  0.03066222     0.15300
H209        H  0.52541026  0.09533414  0.04857909     0.15300
C210        C  0.49518635  0.07267941  0.10462893    -0.23700
H211        H  0.06772652  0.00018568  0.97451981     0.05500
H212        H  0.11565758  0.01986893  0.96902202     0.08700
H213        H  0.03044297  0.06163481  0.47252767     0.08700
H214        H  0.52622381  0.06239311  0.12454790     0.08700
H215        H  0.45198859  0.07132544  0.11122697     0.08700
H216        H  0.49322907  0.09428990  0.10432558     0.05500
C217        C  0.06172926  0.31586543  0.50853280    -0.20300
C218        C  0.02753420  0.33604556  0.48756368    -0.06900
C219        C  0.04475790  0.33843258  0.45395498     0.14000
C220        C  0.09234765  0.31861093  0.44077703    -0.20400
C221        C  0.12511456  0.29746523  0.46128281    -0.06900
C222        C  0.11126274  0.29692519  0.49609076     0.14000
C223        C  0.14679278  0.27575732  0.51990991    -0.23700
H224        H  0.04833226  0.31442632  0.53442532     0.15300
H225        H  0.10384487  0.31950532  0.41438117     0.15300
C226        C  0.01279526  0.36198440  0.43227551    -0.23700
H227        H  0.12831982  0.27782649  0.54581379     0.05500
H228        H  0.19068512  0.27774030  0.52188608     0.08700
H229        H  0.14935046  0.25537696  0.51051637     0.08700
H230        H  0.00860127  0.37870625  0.95288859     0.08700
H231        H  0.96697741  0.36309399  0.43010116     0.08700
H232        H  0.03102131  0.36064436  0.40635463     0.05500
C233        C  0.39723303  0.27547770  0.48631807    -0.20300
C234        C  0.38608438  0.27506532  0.45134914    -0.06900
C235        C  0.39805877  0.29479073  0.43008478     0.14000
C236        C  0.41509417  0.31569393  0.44489597    -0.20400
C237        C  0.42107006  0.31721779  0.48003202    -0.06900
C238        C  0.41423427  0.29640962  0.50089954     0.14000
C239        C  0.92267214  0.29684339  0.53873580    -0.23700
H240        H  0.38999628  0.26002505  0.50265197     0.15300
H241        H  0.41987961  0.33189116  0.42909385     0.15300
C242        C  0.39007771  0.29510812  0.39212763    -0.23700
H243        H  0.91592109  0.27888771  0.55126675     0.05500
H244        H  0.89185422  0.31503265  0.54977886     0.08700
H245        H  0.96702391  0.29705048  0.54441889     0.08700
H246        H  0.34470895  0.29716634  0.38579675     0.08700
H247        H  0.41850098  0.27625800  0.38105499     0.08700
H248        H  0.40109176  0.31220602  0.37997008     0.05500
C249        C  0.49489619  0.43210408  0.04287736    -0.20300
C250        C  0.02818668  0.42278888  0.07194673    -0.06900
C251        C  0.04736333  0.39481285  0.07880811     0.14000
C252        C  0.02599491  0.37743703  0.05899464    -0.20400
C253        C  0.98647215  0.38758477  0.03276869    -0.06900
C254        C  0.47365471  0.41489659  0.02328185     0.14000
C255        C  0.43473612  0.42684830  0.99389547    -0.23700
H256        H  0.48182503  0.45342484  0.03676905     0.15300
H257        H  0.03580604  0.35640352  0.06607796     0.15300
C258        C  0.08654192  0.38347503  0.10827388    -0.23700
H259        H  0.45769631  0.43650704  0.97601647     0.05500
H260        H  0.39596578  0.44232444  0.00334194     0.08700
H261        H  0.42086805  0.41157867  0.97949924     0.08700
H262        H  0.06646241  0.39236578  0.13241312     0.08700
H263        H  0.12777766  0.38806750  0.10496823     0.08700
H264        H  0.09613325  0.36125905  0.11017694     0.05500
N265        N  0.96271821  0.34806927  0.00620490    -0.03500
C266        C  0.95337860  0.37507334  0.51416785    -0.00900
C267        C  0.39490114  0.38227459  0.52000492    -0.23800
C268        C  0.37590050  0.36180681  0.50761334    -0.24000
C269        C  0.41442389  0.34049159  0.00438184    -0.01000
H270        H  0.36913182  0.40022981  0.53266452     0.12800
H271        H  0.33241609  0.36063774  0.50833078     0.12800
N272        N  0.06239316  0.10192855  0.98107509    -0.03500
C273        C  0.08020845  0.09310538  0.52728140    -0.00900
C274        C  0.13626591  0.08677467  0.53837414    -0.23800
C275        C  0.15689277  0.08517284  0.97098958    -0.24000
C276        C  0.10912412  0.10730407  0.96812532    -0.01000
H277        H  0.15639493  0.07230306  0.55781205     0.12800
H278        H  0.20057362  0.08412398  0.96463987     0.12800
O279        O  0.34616719  0.25013613  0.91314913    -0.81800
C280        C  0.17227481  0.20191475  0.93672911     0.97500
O281        O  0.19917754  0.21015596  0.95971142    -0.70900
O282        O  0.31100320  0.19206554  0.96086823    -0.74500
Al283      Al  0.25873538  0.22732561  0.95860074     1.49000
C284        C  0.35916175  0.18405952  0.94690438     0.92800
O285        O  0.31024596  0.19356653  0.86723341    -0.80700
O286        O  0.20988467  0.26966647  0.87007084    -0.74300
Al287      Al  0.32535326  0.22235137  0.89113445     1.90100
O288        O  0.22321627  0.21690135  0.85145127    -0.73400
O289        O  0.14858678  0.26357415  0.92243932    -0.73200
O290        O  0.17083776  0.21044471  0.90672961    -0.78900
O291        O  0.20687752  0.26205158  0.96481172    -0.77100
O292        O  0.25915316  0.22970349  0.91349130    -1.13200
O293        O  0.31822485  0.24407640  0.96473369    -0.72400
C294        C  0.34491886  0.25504368  0.94448296     0.98300
C295        C  0.26709884  0.19669221  0.84829926     0.94700
Al296      Al  0.19361385  0.23940210  0.88981516     1.55600
O297        O  0.37045584  0.19622234  0.92161576    -0.77000
C298        C  0.15960738  0.27248403  0.95043345     0.98900
C299        C  0.25331141  0.26736936  0.85184046     0.93700
O300        O  0.29702399  0.24708080  0.85475480    -0.82400
N301        N  0.31530386  0.36003091  0.75154026    -0.03500
C302        C  0.32923835  0.33742335  0.77067928    -0.00900
C303        C  0.38741593  0.32909370  0.77762754    -0.23800
C304        C  0.41006276  0.34739721  0.76244358    -0.24000
C305        C  0.36485290  0.36608673  0.74677908    -0.01000
H306        H  0.41059803  0.31176123  0.79253596     0.12800
H307        H  0.45426851  0.34749632  0.76341876     0.12800
N308        N  0.21708942  0.10331665  0.74391608    -0.03500
C309        C  0.20130830  0.12869164  0.75642931    -0.00900
C310        C  0.14290326  0.14046683  0.75257692    -0.23800
C311        C  0.12179428  0.12167465  0.73735854    -0.24000
C312        C  0.16813309  0.09920530  0.73239076    -0.01000
H313        H  0.11799381  0.16012560  0.76147355     0.12800
H314        H  0.07731085  0.12374791  0.73171803     0.12800
O315        O  0.10371998  0.00108267  0.65935180    -0.81800
C316        C  0.43261848  0.45269119  0.68931419     0.97500
O317        O  0.45732257  0.46348193  0.71092754    -0.70900
O318        O  0.06850396  0.44503926  0.71083929    -0.74500
Al319      Al  0.01716733  0.48016763  0.70732066     1.49000
C320        C  0.11648826  0.43607198  0.69687494     0.92800
O321        O  0.06772437  0.44342541  0.61595863    -0.80700
O322        O  0.46436306  0.01893859  0.61919799    -0.74300
Al323      Al  0.08241991  0.47278662  0.63902532     1.90100
O324        O  0.48021535  0.46610780  0.60116286    -0.73400
O325        O  0.40475702  0.01232152  0.67218164    -0.73200
O326        O  0.43198966  0.45870942  0.65828013    -0.78900
O327        O  0.46559569  0.01540476  0.71141060    -0.77100
O328        O  0.01692459  0.48038980  0.66221834    -1.13200
O329        O  0.07706217  0.99676037  0.71158364    -0.72400
C330        C  0.10290922  0.00713731  0.69030173     0.98300
C331        C  0.02437174  0.44615471  0.59733842     0.94700
Al332      Al  0.45081434  0.48838938  0.63956261     1.55600
O333        O  0.12778464  0.44699747  0.67032975    -0.77000
C334        C  0.41668119  0.02356617  0.69817659     0.98900
C335        C  0.00777713  0.01784715  0.60137902     0.93700
O336        O  0.05186781  0.99749954  0.60247179    -0.82400
C337        C  0.29133668  0.06026725  0.75305679    -0.20300
C338        C  0.27402247  0.08572352  0.73757617    -0.06900
C339        C  0.30768970  0.09141265  0.71113970     0.14000
C340        C  0.35602870  0.07112822  0.69973090    -0.20400
C341        C  0.37140543  0.04536467  0.71416003    -0.06900
C342        C  0.33939824  0.03996772  0.74151918     0.14000
C343        C  0.35381736  0.01229930  0.75707549    -0.23700
H344        H  0.26539142  0.05585862  0.77312723     0.15300
H345        H  0.38069516  0.07510249  0.67875862     0.15300
C346        C  0.29116229  0.11841737  0.69377978    -0.23700
H347        H  0.32424998  0.01140146  0.77808064     0.05500
H348        H  0.39822408  0.00643021  0.76728747     0.08700
H349        H  0.35024550  0.49766728  0.73741121     0.08700
H350        H  0.29449429  0.13403824  0.71198492     0.08700
H351        H  0.24664921  0.12338096  0.68392504     0.08700
H352        H  0.31994370  0.11883656  0.67217799     0.05500
C353        C  0.13544147  0.04674788  0.67675416    -0.20300
C354        C  0.12935815  0.02800832  0.70118464    -0.06900
C355        C  0.14428675  0.03115735  0.73536444     0.14000
C356        C  0.15992634  0.05404993  0.74443763    -0.20400
C357        C  0.16229353  0.07342822  0.72029300    -0.06900
C358        C  0.15126400  0.06953169  0.68599451     0.14000
C359        C  0.15470180  0.08976037  0.65932706    -0.23700
H360        H  0.12502979  0.04435208  0.65046331     0.15300
H361        H  0.16777054  0.05750436  0.77085267     0.15300
C362        C  0.14410085  0.01072338  0.76251120    -0.23700
H363        H  0.14474284  0.08359609  0.63365991     0.05500
H364        H  0.19869457  0.09172915  0.65888220     0.08700
H365        H  0.12358923  0.10964737  0.66500841     0.08700
H366        H  0.17112066  0.99050846  0.75442745     0.08700
H367        H  0.09971878  0.01034142  0.76759149     0.08700
H368        H  0.16180342  0.01553366  0.78683504     0.05500
C369        C  0.38651424  0.38925435  0.69629568    -0.20300
C370        C  0.37043773  0.39052486  0.73038418    -0.06900
C371        C  0.36910871  0.41336664  0.74977567     0.14000
C372        C  0.38672082  0.43401675  0.73498402    -0.20400
C373        C  0.40540871  0.43243387  0.70118625    -0.06900
C374        C  0.40334716  0.41011769  0.68115779     0.14000
C375        C  0.42199959  0.40718845  0.64460496    -0.23700
H376        H  0.38876177  0.37122834  0.68196721     0.15300
H377        H  0.38808416  0.45098995  0.75042776     0.15300
C378        C  0.35172011  0.41541368  0.78652746    -0.23700
H379        H  0.41955420  0.38794425  0.63351285     0.05500
H380        H  0.96700755  0.40753525  0.64263561     0.08700
H381        H  0.39378366  0.42384659  0.62927678     0.08700
H382        H  0.38059097  0.39850082  0.80117865     0.08700
H383        H  0.30701295  0.41468237  0.78878118     0.08700
H384        H  0.35387114  0.43455834  0.79804468     0.05500
C385        C  0.19806620  0.39444560  0.69105650    -0.20300
C386        C  0.16136943  0.41341922  0.71241558    -0.06900
C387        C  0.17219049  0.41201527  0.74779586     0.14000
C388        C  0.22163225  0.39296965  0.76039336    -0.20400
C389        C  0.25991765  0.37514945  0.73873605    -0.06900
C390        C  0.24677779  0.37511333  0.70388161     0.14000
C391        C  0.28375136  0.35513965  0.67961123    -0.23700
H392        H  0.18940383  0.39509139  0.66405696     0.15300
H393        H  0.23220160  0.39295102  0.78702588     0.15300
C394        C  0.13403225  0.43150074  0.77223436    -0.23700
H395        H  0.25795822  0.34321901  0.66774618     0.05500
H396        H  0.32121915  0.34087466  0.69222745     0.08700
H397        H  0.29947652  0.36598430  0.65936762     0.08700
H398        H  0.09048522  0.42898282  0.77199562     0.08700
H399        H  0.13134953  0.45247158  0.76503286     0.08700
H400        H  0.15052585  0.42810482  0.79863871     0.05500
C401        C  0.26560421  0.15096624  0.83342890    -0.20300
C402        C  0.26611459  0.17653353  0.82256082    -0.06900
C403        C  0.25640151  0.18375672  0.78811797     0.14000
C404        C  0.24136598  0.16610063  0.76579295    -0.20400
C405        C  0.23650079  0.14131090  0.77707994    -0.06900
C406        C  0.25030575  0.13327742  0.81108346     0.14000
C407        C  0.24440112  0.10713902  0.82459443    -0.23700
H408        H  0.27286637  0.14568188  0.86000439     0.15300
H409        H  0.22943408  0.17246777  0.73993434     0.15300
C410        C  0.26083606  0.21027163  0.77505509    -0.23700
H411        H  0.25307476  0.10496520  0.85226488     0.05500
H412        H  0.27573551  0.09011166  0.81186478     0.08700
H413        H  0.20029210  0.10601224  0.82007533     0.08700
H414        H  0.30467603  0.21149940  0.78018276     0.08700
H415        H  0.22881586  0.22722542  0.78766581     0.08700
H416        H  0.25311496  0.21243305  0.74729576     0.05500
C417        C  0.28313196  0.27841775  0.79580823    -0.20300
C418        C  0.25483283  0.28778837  0.82623221    -0.08100
C419        C  0.23773064  0.31566980  0.83320195     0.14000
C420        C  0.25631765  0.33290959  0.81157649    -0.20400
C421        C  0.29036913  0.32275306  0.78317828    -0.06900
C422        C  0.30065230  0.29555618  0.77405375     0.14000
C423        C  0.33396702  0.28356140  0.74285554    -0.23700
H424        H  0.29529879  0.25716820  0.79004742     0.15300
H425        H  0.24928420  0.35368542  0.81886158     0.15300
C426        C  0.20438279  0.32691781  0.86464389    -0.23700
H427        H  0.30788785  0.27390749  0.72713279     0.05500
H428        H  0.37428483  0.26807183  0.75042982     0.08700
H429        H  0.34500235  0.29884440  0.72686616     0.08700
H430        H  0.22861640  0.31754112  0.88759273     0.08700
H431        H  0.16236207  0.32276213  0.86415028     0.08700
H432        H  0.19601213  0.34906468  0.86645826     0.05500
C433        C  0.14463131  0.16211399  0.91825827    -0.20300
C434        C  0.14545910  0.18050650  0.94420547    -0.06900
C435        C  0.12472298  0.17668019  0.97670648     0.14000
C436        C  0.10929437  0.15324953  0.98320445    -0.20400
C437        C  0.11253713  0.13403818  0.95788057    -0.06900
C438        C  0.12849651  0.13889870  0.92475876     0.14000
C439        C  0.12956822  0.11939922  0.89642175    -0.23700
H440        H  0.15946702  0.16515070  0.89312307     0.15300
H441        H  0.09797879  0.14916581  0.00871205     0.15300
C442        C  0.11835280  0.19707709  0.00460757    -0.23700
H443        H  0.14197641  0.12666645  0.87198700     0.05500
H444        H  0.08623292  0.11702044  0.89316506     0.08700
H445        H  0.16080483  0.09952536  0.90215826     0.08700
H446        H  0.09152964  0.21708093  0.99546996     0.08700
H447        H  0.16095685  0.19824408  0.01286771     0.08700
H448        H  0.03480583  0.21716079  0.49162401     0.05500
C449        C  0.42199451  0.13750645  0.94048781    -0.20300
C450        C  0.40421863  0.16073108  0.96035890    -0.06900
C451        C  0.43495450  0.16267528  0.99013250     0.14000
C452        C  0.48444683  0.14163731  0.99856386    -0.20400
C453        C  0.50432395  0.11913990  0.97744032    -0.06900
C454        C  0.47147664  0.11660784  0.94887136     0.14000
C455        C  0.48966923  0.09211745  0.92670344    -0.23700
H456        H  0.39818430  0.13617167  0.91767822     0.15300
H457        H  0.50942668  0.14337007  0.02064117     0.15300
C458        C  0.41776864  0.18767476  0.01164748    -0.23700
H459        H  0.46084897  0.09384983  0.90445592     0.05500
H460        H  0.48793255  0.07436718  0.94167408     0.08700
H461        H  0.53391154  0.08900206  0.91733040     0.08700
H462        H  0.37360646  0.19096196  0.02133817     0.08700
H463        H  0.41914203  0.20538407  0.99626511     0.08700
H464        H  0.44696283  0.18608661  0.03369505     0.05500
C465        C  0.02508932  0.03517904  0.54560322    -0.20300
C466        C  0.00890449  0.04054824  0.57947241    -0.06900
C467        C  0.50362321  0.06624616  0.59311093     0.14000
C468        C  0.51981690  0.08520758  0.57332830    -0.20400
C469        C  0.04073937  0.07894793  0.54036363    -0.06900
C470        C  0.04064240  0.05423021  0.52576384     0.14000
C471        C  0.06019609  0.04731523  0.48991032    -0.23700
H472        H  0.02853115  0.01546286  0.53525213     0.15300
H473        H  0.52112792  0.10399807  0.58463005     0.15300
C474        C  0.48541602  0.07288587  0.62926679    -0.23700
H475        H  0.05985955  0.02667517  0.48299349     0.05500
H476        H  0.10447768  0.04849207  0.48643223     0.08700
H477        H  0.04291926  0.03204632  0.95354382     0.08700
H478        H  0.51477036  0.05842343  0.64679992     0.08700
H479        H  0.44123779  0.07165903  0.63253513     0.08700
H480        H  0.48564550  0.09353020  0.63624006     0.05500
C481        C  0.05162814  0.31177447  0.01454556    -0.20300
C482        C  0.01828405  0.33273162  0.99432411    -0.06900
C483        C  0.03590514  0.33602420  0.96105934     0.14000
C484        C  0.08328916  0.31642410  0.94738742    -0.20400
C485        C  0.11523965  0.29453449  0.96708340    -0.06900
C486        C  0.10074499  0.29291553  0.00161467     0.14000
C487        C  0.13494415  0.27066298  0.02451838    -0.23700
H488        H  0.03792250  0.30977128  0.04023787     0.15300
H489        H  0.09530422  0.31808627  0.92123218     0.15300
C490        C  0.00477614  0.36027332  0.94026756    -0.23700
H491        H  0.11592317  0.27196273  0.05023087     0.05500
H492        H  0.17921890  0.27201629  0.02735629     0.08700
H493        H  0.13647828  0.25082682  0.01369251     0.08700
H494        H  0.01573834  0.38089838  0.44404282     0.08700
H495        H  0.95875878  0.36182490  0.93781782     0.08700
H496        H  0.02310605  0.35946360  0.91442287     0.05500
C497        C  0.38320633  0.27431463  0.99329902    -0.20300
C498        C  0.37343595  0.27439838  0.95812601    -0.06900
C499        C  0.38661871  0.29433315  0.93774797     0.14000
C500        C  0.40409006  0.31473496  0.95353420    -0.20400
C501        C  0.40928310  0.31561794  0.98877373    -0.06900
C502        C  0.40083512  0.29471681  0.00882691     0.14000
C503        C  0.90911389  0.29428399  0.04671537    -0.23700
H504        H  0.37497964  0.25875034  0.00900659     0.15300
H505        H  0.41030109  0.33097750  0.93838253     0.15300
C506        C  0.37993690  0.29532664  0.89967918    -0.23700
H507        H  0.90150262  0.27624187  0.05850822     0.05500
H508        H  0.87882753  0.31240226  0.05823105     0.08700
H509        H  0.95371516  0.29396061  0.05270972     0.08700
H510        H  0.33471902  0.29767941  0.89263661     0.08700
H511        H  0.40850773  0.27661734  0.88837168     0.08700
H512        H  0.39168821  0.31253531  0.88836596     0.05500
C513        C  0.49016211  0.43636629  0.54160916    -0.20300
C514        C  0.02311781  0.42645228  0.57058924    -0.06900
C515        C  0.04617453  0.39826380  0.57506456     0.14000
C516        C  0.02844961  0.38095589  0.55307201    -0.20400
C517        C  0.98944230  0.39132493  0.52666030    -0.06900
C518        C  0.47347046  0.41917654  0.51947017     0.14000
C519        C  0.43587191  0.43154344  0.48973452    -0.23700
H520        H  0.47441575  0.45792298  0.53720793     0.15300
H521        H  0.04081254  0.35956642  0.55850761     0.15300
C522        C  0.08617596  0.38639021  0.60399703    -0.23700
H523        H  0.45786058  0.44321581  0.47408009     0.05500
H524        H  0.39471305  0.44534064  0.49901594     0.08700
H525        H  0.42645655  0.41623955  0.47306170     0.08700
H526        H  0.06538593  0.39342252  0.62862015     0.08700
H527        H  0.12578389  0.39256808  0.60176205     0.08700
H528        H  0.09887895  0.36402841  0.60392537     0.05500
N529        N  0.97097172  0.85083165  0.49864827    -0.03500
C530        C  0.94792014  0.87198569  0.02240780    -0.00900
C531        C  0.39027207  0.87961918  0.03058182    -0.23800
C532        C  0.36895154  0.85959209  0.01902531    -0.24000
C533        C  0.42345407  0.84281481  0.49484906    -0.01000
H534        H  0.36663662  0.89758622  0.04404435     0.12800
H535        H  0.32527236  0.85889120  0.02126819     0.12800
N536        N  0.06963076  0.61227119  0.50276779    -0.03500
C537        C  0.08052889  0.57589190  0.99151478    -0.00900
C538        C  0.13893022  0.56532887  0.98608980    -0.23800
C539        C  0.16130149  0.60282147  0.52046099    -0.24000
C540        C  0.11983120  0.61812332  0.49868998    -0.01000
H541        H  0.16644089  0.54594889  0.99444020     0.12800
H542        H  0.20438914  0.60402549  0.52405590     0.12800
O543        O  0.35696594  0.74992144  0.40801045    -0.81800
C544        C  0.18135791  0.70430877  0.43673304     0.97500
O545        O  0.20640863  0.71442366  0.45882013    -0.70900
O546        O  0.31840294  0.69452067  0.45983689    -0.74500
Al547      Al  0.26789024  0.73015924  0.45557939     1.49000
C548        C  0.36708992  0.68568687  0.44651949     0.92800
O549        O  0.31869407  0.69228052  0.36585149    -0.80700
O550        O  0.21942832  0.76867648  0.36545142    -0.74300
Al551      Al  0.33469190  0.72168591  0.38801611     1.90100
O552        O  0.23221254  0.71558181  0.34927611    -0.73400
O553        O  0.15769977  0.76431469  0.41876982    -0.73200
O554        O  0.18110505  0.71040217  0.40581353    -0.78900
O555        O  0.21782850  0.76568074  0.45918466    -0.77100
O556        O  0.26852767  0.73032997  0.41042271    -1.13200
O557        O  0.32912630  0.74588020  0.46013212    -0.72400
C558        C  0.35640383  0.75576315  0.43903341     0.98300
C559        C  0.27575152  0.69514342  0.34682054     0.94700
Al560      Al  0.20296062  0.73910027  0.38688037     1.55600
O561        O  0.37865998  0.69648283  0.42001520    -0.77000
C562        C  0.16958871  0.77494350  0.44536645     0.98900
C563        C  0.26337551  0.76595617  0.34745743     0.93700
O564        O  0.30663127  0.74543468  0.35063279    -0.82400
N565        N  0.32496694  0.86033404  0.25033046    -0.03500
C566        C  0.34115379  0.83707837  0.26814786    -0.00900
C567        C  0.39939503  0.82966588  0.27485415    -0.23800
C568        C  0.41970700  0.84919328  0.26075113    -0.24000
C569        C  0.37307842  0.86768540  0.24601933    -0.01000
H570        H  0.42411254  0.81217302  0.28896744     0.12800
H571        H  0.46336434  0.85011042  0.26164997     0.12800
N572        N  0.22705323  0.60270081  0.23951615    -0.03500
C573        C  0.21015896  0.62756856  0.25354759    -0.00900
C574        C  0.15147051  0.63866890  0.25036667    -0.23800
C575        C  0.13148997  0.61998165  0.23390773    -0.24000
C576        C  0.17872282  0.59818519  0.22752371    -0.01000
H577        H  0.12565762  0.65766940  0.26065316     0.12800
H578        H  0.08711533  0.62155003  0.22863773     0.12800
O579        O  0.11547484  0.49883052  0.15516967    -0.81800
C580        C  0.43918106  0.95422597  0.18794327     0.97500
O581        O  0.46654516  0.96401982  0.20907517    -0.70900
O582        O  0.07732569  0.94440885  0.20897598    -0.74500
Al583      Al  0.02741863  0.97986858  0.20460552     1.49000
C584        C  0.12534894  0.93483927  0.19530927     0.92800
O585        O  0.07600302  0.94055336  0.11510149    -0.80700
O586        O  0.47782130  0.51709184  0.11339175    -0.74300
Al587      Al  0.09287985  0.97020624  0.13635630     1.90100
O588        O  0.48890730  0.96388791  0.09986869    -0.73400
O589        O  0.41726373  0.51404768  0.16762944    -0.73200
O590        O  0.43781318  0.96036883  0.15696985    -0.78900
O591        O  0.47695236  0.51535099  0.20839405    -0.77100
O592        O  0.02704558  0.97946099  0.15940485    -1.13200
O593        O  0.08857994  0.49588810  0.20784499    -0.72400
C594        C  0.11485231  0.50554352  0.18594418     0.98300
C595        C  0.03199053  0.94328011  0.09695801     0.94700
Al596      Al  0.46101415  0.98819763  0.13648309     1.55600
O597        O  0.13739195  0.94521916  0.16859979    -0.77000
C598        C  0.42901149  0.52459342  0.19422246     0.98900
C599        C  0.02081478  0.51344783  0.09435612     0.93700
O600        O  0.06446229  0.49326133  0.09833376    -0.82400
C601        C  0.30672020  0.56200374  0.25067359    -0.20300
C602        C  0.28451055  0.58607648  0.23259689    -0.06900
C603        C  0.31411606  0.59108305  0.20379132     0.14000
C604        C  0.36323045  0.57118699  0.19250627    -0.20400
C605        C  0.38403771  0.54671446  0.20992738    -0.06900
C606        C  0.35633626  0.54231216  0.23980889     0.14000
C607        C  0.37655696  0.51603706  0.25882562    -0.23700
H608        H  0.28333495  0.55791835  0.27221597     0.15300
H609        H  0.38453670  0.57439229  0.16951261     0.15300
C610        C  0.29266650  0.61704037  0.18429022    -0.23700
H611        H  0.34949193  0.51574251  0.28131662     0.05500
H612        H  0.42133345  0.51264021  0.26765926     0.08700
H613        H  0.37462424  0.99940260  0.24189706     0.08700
H614        H  0.29494387  0.63397989  0.20059447     0.08700
H615        H  0.24767172  0.62033395  0.17611769     0.08700
H616        H  0.31896563  0.61712536  0.16139214     0.05500
C617        C  0.14177101  0.54655159  0.17199662    -0.20300
C618        C  0.14162813  0.52651440  0.19594396    -0.06900
C619        C  0.16220723  0.52851635  0.22915745     0.14000
C620        C  0.17804215  0.55145098  0.23805220    -0.20400
C621        C  0.17412991  0.57225658  0.21468640    -0.06900
C622        C  0.15698172  0.56955119  0.18109378     0.14000
C623        C  0.15338104  0.59116437  0.15498915    -0.23700
H624        H  0.12694188  0.54496353  0.14640314     0.15300
H625        H  0.19026356  0.55389414  0.26398983     0.15300
C626        C  0.16753795  0.50679442  0.25542515    -0.23700
H627        H  0.13854768  0.58589729  0.13003819     0.05500
H628        H  0.19637799  0.59379033  0.15142649     0.08700
H629        H  0.12276326  0.61047670  0.16327987     0.08700
H630        H  0.19359241  0.48709330  0.24519207     0.08700
H631        H  0.12452349  0.50569290  0.26281947     0.08700
H632        H  0.18896616  0.51080136  0.27883509     0.05500
C633        C  0.38801679  0.89224761  0.19511783    -0.20300
C634        C  0.37629379  0.89262020  0.22979926    -0.06900
C635        C  0.37749771  0.91494539  0.24951416     0.14000
C636        C  0.39469566  0.93565891  0.23451008    -0.20400
C637        C  0.41036358  0.93463535  0.20016479    -0.06900
C638        C  0.40434480  0.91317478  0.17977518     0.14000
C639        C  0.41836094  0.91110367  0.14248310    -0.23700
H640        H  0.38781464  0.87471856  0.18041264     0.15300
H641        H  0.39839717  0.95212933  0.25016399     0.15300
C642        C  0.36302423  0.91636207  0.28670232    -0.23700
H643        H  0.41255354  0.89257956  0.13106004     0.05500
H644        H  0.96362593  0.91051287  0.13865812     0.08700
H645        H  0.38960170  0.92861193  0.12873611     0.08700
H646        H  0.39279963  0.89914006  0.30039819     0.08700
H647        H  0.31841728  0.91569127  0.29006484     0.08700
H648        H  0.36635996  0.93525491  0.29837495     0.05500
C649        C  0.20545124  0.89256340  0.19040994    -0.20300
C650        C  0.16958577  0.91222097  0.21134863    -0.06900
C651        C  0.18127336  0.91171633  0.24657831     0.14000
C652        C  0.23120723  0.89308814  0.25930274    -0.20400
C653        C  0.26888464  0.87473016  0.23791009    -0.06900
C654        C  0.25456925  0.87360143  0.20339445     0.14000
C655        C  0.29100745  0.85299953  0.17959833    -0.23700
H656        H  0.19605668  0.89251526  0.16354568     0.15300
H657        H  0.24263279  0.89378617  0.28571827     0.15300
C658        C  0.14354614  0.93177307  0.27057861    -0.23700
H659        H  0.26524688  0.84047630  0.16918469     0.05500
H660        H  0.32932889  0.83938525  0.19222887     0.08700
H661        H  0.30547918  0.86329413  0.15827286     0.08700
H662        H  0.09994721  0.92930541  0.27088819     0.08700
H663        H  0.14086925  0.95256018  0.26251114     0.08700
H664        H  0.16041499  0.92894215  0.29692692     0.05500
C665        C  0.26721570  0.65036151  0.33298973    -0.20300
C666        C  0.27474033  0.67456853  0.32158777    -0.06900
C667        C  0.27137657  0.68054819  0.28662377     0.14000
C668        C  0.25613986  0.66306661  0.26397564    -0.20400
C669        C  0.24460480  0.63971101  0.27556883    -0.06900
C670        C  0.25132176  0.63299556  0.31041748     0.14000
C671        C  0.23711247  0.60876535  0.32433080    -0.23700
H672        H  0.26936624  0.64609358  0.35994749     0.15300
H673        H  0.24889959  0.66875042  0.23754295     0.15300
C674        C  0.28198096  0.70582372  0.27341854    -0.23700
H675        H  0.24202567  0.60728821  0.35232596     0.05500
H676        H  0.26647890  0.59025493  0.31334392     0.08700
H677        H  0.19210442  0.60992144  0.31806338     0.08700
H678        H  0.32572279  0.70599976  0.28090852     0.08700
H679        H  0.24991952  0.72379668  0.28404148     0.08700
H680        H  0.27883497  0.70715870  0.24534601     0.05500
C681        C  0.29682311  0.77704127  0.29236128    -0.20300
C682        C  0.26638619  0.78636708  0.32218228    -0.08100
C683        C  0.24875067  0.81425412  0.32925096     0.14000
C684        C  0.26807921  0.83160085  0.30823604    -0.20400
C685        C  0.30386390  0.82155331  0.28050978    -0.06900
C686        C  0.31558255  0.79427239  0.27137329     0.14000
C687        C  0.35093866  0.78235059  0.24082678    -0.23700
H688        H  0.30947649  0.75576539  0.28650652     0.15300
H689        H  0.25990355  0.85247511  0.31544588     0.15300
C690        C  0.21392465  0.82544718  0.36023655    -0.23700
H691        H  0.32596252  0.77268088  0.22429575     0.05500
H692        H  0.39078503  0.76688220  0.24913496     0.08700
H693        H  0.36298363  0.79763463  0.22538281     0.08700
H694        H  0.23713386  0.81605639  0.38348965     0.08700
H695        H  0.17195409  0.82128918  0.35892546     0.08700
H696        H  0.20541877  0.84759297  0.36222321     0.05500
C697        C  0.18793965  0.65666857  0.43922417    -0.20300
C698        C  0.15687510  0.68314498  0.44720005    -0.06900
C699        C  0.10844878  0.68832815  0.46830337     0.14000
C700        C  0.09485120  0.66657595  0.48340543    -0.20400
C701        C  0.12892178  0.64000101  0.47769393    -0.06900
C702        C  0.17493442  0.63491296  0.45443937     0.14000
C703        C  0.21095475  0.60669362  0.44576954    -0.23700
H704        H  0.22472372  0.65305050  0.42259314     0.15300
H705        H  0.05955429  0.67042802  0.50109660     0.15300
C706        C  0.07177611  0.71670006  0.47504734    -0.23700
H707        H  0.24211596  0.60669868  0.42531379     0.05500
H708        H  0.18322393  0.59460002  0.43691160     0.08700
H709        H  0.23594347  0.59674409  0.46813011     0.08700
H710        H  0.05479497  0.72675984  0.45072084     0.08700
H711        H  0.09758976  0.72816919  0.48768949     0.08700
H712        H  0.09708580  0.69167873  0.02723638     0.05500
C713        C  0.45277348  0.64593105  0.44091764    -0.20300
C714        C  0.41290738  0.66342876  0.46234944    -0.06900
C715        C  0.42276777  0.66170730  0.49780671     0.14000
C716        C  0.47305447  0.64322305  0.51057531    -0.20400
C717        C  0.51457428  0.62710203  0.48886340    -0.06900
C718        C  0.50367119  0.62803197  0.45363059     0.14000
C719        C  0.54606576  0.61085806  0.42910233    -0.23700
H720        H  0.44532509  0.64721000  0.41378725     0.15300
H721        H  0.48205871  0.64257068  0.53751587     0.15300
C722        C  0.38290256  0.68055500  0.52213095    -0.23700
H723        H  0.52820575  0.61241542  0.40300589     0.05500
H724        H  0.55819975  0.58943779  0.43680443     0.08700
H725        H  0.58487740  0.61752230  0.42798036     0.08700
H726        H  0.33987475  0.67750071  0.52106531     0.08700
H727        H  0.37940029  0.70175312  0.51546318     0.08700
H728        H  0.39854798  0.67702906  0.54869668     0.05500
C729        C  0.03716607  0.52026336  0.03421564    -0.20300
C730        C  0.02089661  0.53183913  0.06603262    -0.06900
C731        C  0.51323007  0.55954367  0.07081591     0.14000
C732        C  0.52683204  0.57457933  0.04420070    -0.20400
C733        C  0.04856390  0.56228811  0.01336054    -0.06900
C734        C  0.05123498  0.53506743  0.00775780     0.14000
C735        C  0.07050844  0.52111534  0.97442674    -0.23700
H736        H  0.04185202  0.49903309  0.03066530     0.15300
H737        H  0.52539432  0.59533463  0.04858319     0.15300
C738        C  0.49515465  0.57267788  0.10462662    -0.23700
H739        H  0.06771084  0.50018337  0.97452124     0.05500
H740        H  0.11564259  0.51986550  0.96901656     0.08700
H741        H  0.03037612  0.56165507  0.47252662     0.08700
H742        H  0.52618450  0.56239325  0.12454925     0.08700
H743        H  0.45195603  0.57132162  0.11121776     0.08700
H744        H  0.49319220  0.59428937  0.10432488     0.05500
C745        C  0.06172333  0.81587038  0.50852625    -0.20300
C746        C  0.02753350  0.83604938  0.48755342    -0.06900
C747        C  0.04476292  0.83843250  0.45394511     0.14000
C748        C  0.09235325  0.81860872  0.44077113    -0.20400
C749        C  0.12511467  0.79746408  0.46128072    -0.06900
C750        C  0.11125676  0.79692746  0.49608800     0.14000
C751        C  0.14677992  0.77576052  0.51991066    -0.23700
H752        H  0.04832285  0.81443422  0.53441817     0.15300
H753        H  0.10385415  0.81950048  0.41437740     0.15300
C754        C  0.01280591  0.86198262  0.43226128    -0.23700
H755        H  0.12830286  0.77783240  0.54581341     0.05500
H756        H  0.19067329  0.77774162  0.52188837     0.08700
H757        H  0.14933499  0.75537965  0.51051893     0.08700
H758        H  0.00859995  0.87870567  0.95287788     0.08700
H759        H  0.96698805  0.86309273  0.43008475     0.08700
H760        H  0.03103651  0.86063979  0.40634140     0.05500
C761        C  0.39724153  0.77546643  0.48633172    -0.20300
C762        C  0.38609437  0.77505646  0.45136236    -0.06900
C763        C  0.39807476  0.79478167  0.43010043     0.14000
C764        C  0.41511178  0.81568326  0.44491447    -0.20400
C765        C  0.42108307  0.81720577  0.48005099    -0.06900
C766        C  0.41424508  0.79639666  0.50091601     0.14000
C767        C  0.92266853  0.79685818  0.53871580    -0.23700
H768        H  0.39000202  0.76001327  0.50266357     0.15300
H769        H  0.41990098  0.83188084  0.42911401     0.15300
C770        C  0.39009782  0.79510069  0.39214287    -0.23700
H771        H  0.91591878  0.77890302  0.55124897     0.05500
H772        H  0.89185003  0.81504793  0.54975742     0.08700
H773        H  0.96701977  0.79706606  0.54439799     0.08700
H774        H  0.34472934  0.79716053  0.38580984     0.08700
H775        H  0.41852006  0.77625046  0.38107008     0.08700
H776        H  0.40111592  0.81219824  0.37998757     0.05500
C777        C  0.49488914  0.93210480  0.04288579    -0.20300
C778        C  0.02819162  0.92278644  0.07193888    -0.06900
C779        C  0.04736227  0.89481044  0.07879997     0.14000
C780        C  0.02599092  0.87743631  0.05898539    -0.20400
C781        C  0.98647121  0.88758607  0.03275849    -0.06900
C782        C  0.47365014  0.91489555  0.02329172     0.14000
C783        C  0.43472689  0.92684569  0.99390664    -0.23700
H784        H  0.48181409  0.95342497  0.03677689     0.15300
H785        H  0.03579655  0.85640366  0.06606836     0.15300
C786        C  0.08653674  0.88347103  0.10826686    -0.23700
H787        H  0.45768265  0.93650612  0.97602608     0.05500
H788        H  0.39595541  0.94232031  0.00335424     0.08700
H789        H  0.42086145  0.91157497  0.97951138     0.08700
H790        H  0.06645573  0.89236241  0.13240555     0.08700
H791        H  0.12777506  0.88806169  0.10496301     0.08700
H792        H  0.09612376  0.86125536  0.11016953     0.05500
N793        N  0.96271374  0.84807192  0.00619465    -0.03500
C794        C  0.95337947  0.87508118  0.51415187    -0.00900
C795        C  0.39490584  0.88226107  0.52002933    -0.23800
C796        C  0.37591006  0.86179051  0.50764190    -0.24000
C797        C  0.41443074  0.84048735  0.00439422    -0.01000
H798        H  0.36913614  0.90021431  0.53269219     0.12800
H799        H  0.33242911  0.86061728  0.50836595     0.12800
N800        N  0.06239069  0.60192743  0.98107127    -0.03500
C801        C  0.08020007  0.59310648  0.52727609    -0.00900
C802        C  0.13625850  0.58677452  0.53836735    -0.23800
C803        C  0.15688839  0.58517016  0.97098041    -0.24000
C804        C  0.10912163  0.60730284  0.96812154    -0.01000
H805        H  0.15638601  0.57230458  0.55780729     0.12800
H806        H  0.20056815  0.58412070  0.96462964     0.12800
O807        O  0.34617056  0.75013553  0.91315486    -0.81800
C808        C  0.17227506  0.70191474  0.93673287     0.97500
O809        O  0.19917755  0.71015621  0.95971498    -0.70900
O810        O  0.31100306  0.69206502  0.96087364    -0.74500
Al811      Al  0.25873589  0.72732538  0.95860474     1.49000
C812        C  0.35916243  0.68405880  0.94691071     0.92800
O813        O  0.31025380  0.69356395  0.86723957    -0.80700
O814        O  0.20989226  0.76966364  0.87007086    -0.74300
Al815      Al  0.32535865  0.72234975  0.89114013     1.90100
O816        O  0.22322389  0.71689737  0.85145579    -0.73400
O817        O  0.14859138  0.76357414  0.92243908    -0.73200
O818        O  0.17083956  0.71044419  0.90673319    -0.78900
O819        O  0.20687794  0.76205172  0.96481376    -0.77100
O820        O  0.25915670  0.72970233  0.91349517    -1.13200
O821        O  0.31822571  0.74407574  0.96473880    -0.72400
C822        C  0.34492137  0.75504282  0.94448884     0.98300
C823        C  0.26710713  0.69668836  0.84830535     0.94700
Al824      Al  0.19361911  0.73940033  0.88981727     1.55600
O825        O  0.37045867  0.69622180  0.92162296    -0.77000
C826        C  0.15960968  0.77248442  0.95043346     0.98900
C827        C  0.25332088  0.76736589  0.85184195     0.93700
O828        O  0.29703307  0.74707752  0.85475878    -0.82400
N829        N  0.31531031  0.86002870  0.75154105    -0.03500
C830        C  0.32925007  0.83742073  0.77067954    -0.00900
C831        C  0.38742789  0.82909378  0.77762705    -0.23800
C832        C  0.41006938  0.84739919  0.76244308    -0.24000
C833        C  0.36485621  0.86608724  0.74677925    -0.01000
H834        H  0.41061408  0.81176162  0.79253534     0.12800
H835        H  0.45427345  0.84750046  0.76341772     0.12800
N836        N  0.21709381  0.60331590  0.74391828    -0.03500
C837        C  0.20131528  0.62869070  0.75643231    -0.00900
C838        C  0.14291090  0.64046735  0.75257971    -0.23800
C839        C  0.12179941  0.62167654  0.73736028    -0.24000
C840        C  0.16813618  0.59920632  0.73239207    -0.01000
H841        H  0.11800290  0.66012658  0.76147730     0.12800
H842        H  0.07731528  0.62375116  0.73171932     0.12800
O843        O  0.10371078  0.50108815  0.65934896    -0.81800
C844        C  0.43261579  0.95269290  0.68931267     0.97500
O845        O  0.45731949  0.96348417  0.71092575    -0.70900
O846        O  0.06850831  0.94503623  0.71084312    -0.74500
Al847      Al  0.01717266  0.98016483  0.70732344     1.49000
C848        C  0.11649188  0.93606758  0.69687838     0.92800
O849        O  0.06772910  0.94342081  0.61596144    -0.80700
O850        O  0.46437209  0.51893583  0.61919966    -0.74300
Al851      Al  0.08242684  0.97278168  0.63902832     1.90100
O852        O  0.48021027  0.96611017  0.60116107    -0.73400
O853        O  0.40476244  0.51231999  0.67218289    -0.73200
O854        O  0.43198688  0.95871087  0.65827859    -0.78900
O855        O  0.46559971  0.51540217  0.71141312    -0.77100
O856        O  0.01693094  0.98038637  0.66222105    -1.13200
O857        O  0.07705658  0.49676373  0.71158103    -0.72400
C858        C  0.10290208  0.50714160  0.69029923     0.98300
C859        C  0.02437694  0.94615151  0.59734028     0.94700
Al860      Al  0.45080880  0.98839150  0.63956092     1.55600
O861        O  0.12778921  0.94699225  0.67033282    -0.77000
C862        C  0.41668562  0.52356405  0.69817860     0.98900
C863        C  0.00776610  0.51785147  0.60137691     0.93700
O864        O  0.05185821  0.49750455  0.60246894    -0.82400
C865        C  0.29133908  0.56026542  0.75305835    -0.20300
C866        C  0.27402634  0.58572193  0.73757798    -0.06900
C867        C  0.30769472  0.59141087  0.71114198     0.14000
C868        C  0.35603404  0.57112632  0.69973373    -0.20400
C869        C  0.37140932  0.54536254  0.71416202    -0.06900
C870        C  0.33940010  0.53996551  0.74152016     0.14000
C871        C  0.35381659  0.51229660  0.75707496    -0.23700
H872        H  0.26539492  0.55585711  0.77312758     0.15300
H873        H  0.38070276  0.57510082  0.67876191     0.15300
C874        C  0.29116880  0.61841553  0.69378203    -0.23700
H875        H  0.32424722  0.51139862  0.77807986     0.05500
H876        H  0.39822248  0.50642656  0.76728760     0.08700
H877        H  0.35024665  0.99766888  0.73741238     0.08700
H878        H  0.29450201  0.63403612  0.71198705     0.08700
H879        H  0.24665504  0.62337973  0.68392720     0.08700
H880        H  0.31995025  0.61883438  0.67218029     0.05500
C881        C  0.13543217  0.54675315  0.67675340    -0.20300
C882        C  0.12935225  0.52801207  0.70118254    -0.06900
C883        C  0.14428717  0.53115863  0.73536189     0.14000
C884        C  0.15992902  0.55405037  0.74443584    -0.20400
C885        C  0.16229286  0.57343027  0.72029283    -0.06900
C886        C  0.15125595  0.56953635  0.68599455     0.14000
C887        C  0.15468736  0.58976724  0.65932854    -0.23700
H888        H  0.12501678  0.54435875  0.65046175     0.15300
H889        H  0.16777800  0.55750311  0.77085223     0.15300
C890        C  0.14410642  0.51072246  0.76250670    -0.23700
H891        H  0.14472343  0.58360472  0.63366145     0.05500
H892        H  0.19867838  0.59173667  0.65888128     0.08700
H893        H  0.12357452  0.60965371  0.66501333     0.08700
H894        H  0.17112539  0.49050810  0.75441960     0.08700
H895        H  0.09972646  0.51033986  0.76758904     0.08700
H896        H  0.16181357  0.51553094  0.78683023     0.05500
C897        C  0.38651048  0.88925603  0.69629471    -0.20300
C898        C  0.37043565  0.89052625  0.73038353    -0.06900
C899        C  0.36910684  0.91336813  0.74977484     0.14000
C900        C  0.38671852  0.93401832  0.73498287    -0.20400
C901        C  0.40540625  0.93243541  0.70118507    -0.06900
C902        C  0.40334392  0.91011926  0.68115664     0.14000
C903        C  0.42199690  0.90718967  0.64460382    -0.23700
H904        H  0.38875754  0.87123008  0.68196625     0.15300
H905        H  0.38808206  0.95099160  0.75042662     0.15300
C906        C  0.35171936  0.91541512  0.78652685    -0.23700
H907        H  0.41955009  0.88794567  0.63351169     0.05500
H908        H  0.96701270  0.90753412  0.64263881     0.08700
H909        H  0.39378162  0.92384817  0.62927531     0.08700
H910        H  0.38059064  0.89850245  0.80117780     0.08700
H911        H  0.30701208  0.91468364  0.78878108     0.08700
H912        H  0.35387024  0.93455975  0.79804380     0.05500
C913        C  0.19806685  0.89444003  0.69105981    -0.20300
C914        C  0.16137171  0.91341428  0.71241885    -0.06900
C915        C  0.17219483  0.91201098  0.74779890     0.14000
C916        C  0.22163769  0.89296589  0.76039586    -0.20400
C917        C  0.25992198  0.87514546  0.73873824    -0.06900
C918        C  0.24677952  0.87510823  0.70388429     0.14000
C919        C  0.28375215  0.85513410  0.67961404    -0.23700
H920        H  0.18940253  0.89508534  0.66405966     0.15300
H921        H  0.23220902  0.89294815  0.78702768     0.15300
C922        C  0.13403770  0.93149681  0.77223747    -0.23700
H923        H  0.25795850  0.84321292  0.66775029     0.05500
H924        H  0.32122066  0.84086957  0.69223007     0.08700
H925        H  0.29947591  0.86597832  0.65936947     0.08700
H926        H  0.09049071  0.92897884  0.77199964     0.08700
H927        H  0.13135486  0.95246717  0.76503561     0.08700
H928        H  0.15053269  0.92810103  0.79864211     0.05500
C929        C  0.26560166  0.65096357  0.83343656    -0.20300
C930        C  0.26612459  0.67652886  0.82256775    -0.06900
C931        C  0.25642222  0.68375068  0.78812395     0.14000
C932        C  0.24138531  0.66609551  0.76579807    -0.20400
C933        C  0.23650865  0.64130786  0.77708529    -0.06900
C934        C  0.25030166  0.63327568  0.81109036     0.14000
C935        C  0.24438132  0.60714021  0.82460155    -0.23700
H936        H  0.27285457  0.64568042  0.86001343     0.15300
H937        H  0.22946052  0.67246223  0.73993895     0.15300
C938        C  0.26086770  0.71026378  0.77506131    -0.23700
H939        H  0.25304958  0.60496661  0.85227245     0.05500
H940        H  0.27571117  0.59010989  0.81187363     0.08700
H941        H  0.20026922  0.60601829  0.82007988     0.08700
H942        H  0.30470796  0.71148937  0.78019310     0.08700
H943        H  0.22884749  0.72721919  0.78766891     0.08700
H944        H  0.25315415  0.71242444  0.74730073     0.05500
C945        C  0.28315267  0.77841242  0.79581139    -0.20300
C946        C  0.25484602  0.78778391  0.82623293    -0.08100
C947        C  0.23773941  0.81566579  0.83320031     0.14000
C948        C  0.25632776  0.83290535  0.81157512    -0.20400
C949        C  0.29038532  0.82274822  0.78317936    -0.06900
C950        C  0.30067494  0.79555038  0.77405721     0.14000
C951        C  0.33399676  0.78355465  0.74286161    -0.23700
H952        H  0.29532383  0.75716163  0.79005208     0.15300
H953        H  0.24928977  0.85368154  0.81885862     0.15300
C954        C  0.20438519  0.82691470  0.86463984    -0.23700
H955        H  0.30792296  0.77389852  0.72713816     0.05500
H956        H  0.37431532  0.76806636  0.75043937     0.08700
H957        H  0.34503222  0.79883706  0.72687206     0.08700
H958        H  0.22861565  0.81753983  0.88759021     0.08700
H959        H  0.16236572  0.82275770  0.86414419     0.08700
H960        H  0.19601129  0.84906204  0.86645267     0.05500
C961        C  0.14461499  0.66211870  0.91825930    -0.20300
C962        C  0.14545835  0.68050663  0.94420960    -0.06900
C963        C  0.12473812  0.67667515  0.97671337     0.14000
C964        C  0.10931024  0.65324405  0.98320943    -0.20400
C965        C  0.11253687  0.63403755  0.95788162    -0.06900
C966        C  0.12848015  0.63890317  0.92475830     0.14000
C967        C  0.12953503  0.61940851  0.89641814    -0.23700
H968        H  0.15943848  0.66515893  0.89312248     0.15300
H969        H  0.09800626  0.64915605  0.00871880     0.15300
C970        C  0.11838362  0.69706687  0.00461944    -0.23700
H971        H  0.14193088  0.62667934  0.87198228     0.05500
H972        H  0.08619779  0.61703074  0.89316865     0.08700
H973        H  0.16077387  0.59953330  0.90214686     0.08700
H974        H  0.09155586  0.71707297  0.99548941     0.08700
H975        H  0.16099132  0.69823193  0.01287357     0.08700
H976        H  0.03480948  0.71715736  0.49161887     0.05500
C977        C  0.42200161  0.63750792  0.94048842    -0.20300
C978        C  0.40421798  0.66072960  0.96036448    -0.06900
C979        C  0.43494752  0.66267120  0.99014161     0.14000
C980        C  0.48444202  0.64163393  0.99857143    -0.20400
C981        C  0.50432662  0.61913990  0.97744325    -0.06900
C982        C  0.47148535  0.61660993  0.94887079     0.14000
C983        C  0.48968546  0.59212223  0.92669861    -0.23700
H984        H  0.39819647  0.63617514  0.91767633     0.15300
H985        H  0.50941766  0.64336489  0.02065151     0.15300
C986        C  0.41775297  0.68766747  0.01166217    -0.23700
H987        H  0.46086891  0.59385608  0.90444884     0.05500
H988        H  0.48795038  0.57436970  0.94166466     0.08700
H989        H  0.53392880  0.58900955  0.91732872     0.08700
H990        H  0.37359034  0.69095103  0.02134966     0.08700
H991        H  0.41912446  0.70537979  0.99628496     0.08700
H992        H  0.44694337  0.68607763  0.03371210     0.05500
C993        C  0.02505557  0.53518810  0.54559925    -0.20300
C994        C  0.00889097  0.54055377  0.57947202    -0.06900
C995        C  0.50361585  0.56624447  0.59310713     0.14000
C996        C  0.51980837  0.58520636  0.57332464    -0.20400
C997        C  0.04072726  0.57895274  0.54036295    -0.06900
C998        C  0.04060747  0.55423955  0.52575948     0.14000
C999        C  0.06013528  0.54732934  0.48990078    -0.23700
H1000       H  0.02848201  0.51547487  0.53524534     0.15300
H1001       H  0.52110247  0.60400035  0.58462419     0.15300
C1002       C  0.48539008  0.57288751  0.62925947    -0.23700
H1003       H  0.05978214  0.52669256  0.48298067     0.05500
H1004       H  0.10441808  0.54850129  0.48641392     0.08700
H1005       H  0.04290144  0.53204334  0.95354367     0.08700
H1006       H  0.51474325  0.55843059  0.64679831     0.08700
H1007       H  0.44121427  0.57165545  0.63252216     0.08700
H1008       H  0.48560385  0.59353509  0.63622983     0.05500
C1009       C  0.05162282  0.81177710  0.01453997    -0.20300
C1010       C  0.01828012  0.83273294  0.99431617    -0.06900
C1011       C  0.03590516  0.83602425  0.96105191     0.14000
C1012       C  0.08329162  0.81642404  0.94738286    -0.20400
C1013       C  0.11524072  0.79453564  0.96708111    -0.06900
C1014       C  0.10074217  0.79291812  0.00161199     0.14000
C1015       C  0.13494035  0.77066709  0.02451808    -0.23700
H1016       H  0.03791448  0.80977510  0.04023248     0.15300
H1017       H  0.09530963  0.81808512  0.92122774     0.15300
C1018       C  0.00477774  0.86027219  0.94025783    -0.23700
H1019       H  0.11591633  0.77196801  0.05023033     0.05500
H1020       H  0.17921322  0.77202127  0.02735708     0.08700
H1021       H  0.13647695  0.75083010  0.01369372     0.08700
H1022       H  0.01574851  0.88089733  0.44402637     0.08700
H1023       H  0.95876062  0.86182294  0.93780613     0.08700
H1024       H  0.02311116  0.85946149  0.91441355     0.05500
C1025       C  0.38320964  0.77431161  0.99330668    -0.20300
C1026       C  0.37343985  0.77439652  0.95813357    -0.06900
C1027       C  0.38662565  0.79433125  0.93775694     0.14000
C1028       C  0.40409871  0.81473199  0.95354471    -0.20400
C1029       C  0.40929035  0.81561407  0.98878442    -0.06900
C1030       C  0.40084039  0.79471258  0.00883618     0.14000
C1031       C  0.90910917  0.79429031  0.04670541    -0.23700
H1032       H  0.37498111  0.75874671  0.00901365     0.15300
H1033       H  0.41031188  0.83097464  0.93839395     0.15300
C1034       C  0.37994486  0.79532583  0.89968816    -0.23700
H1035       H  0.90149887  0.77624828  0.05849977     0.05500
H1036       H  0.87882214  0.81240871  0.05821975     0.08700
H1037       H  0.95371013  0.79396769  0.05269947     0.08700
H1038       H  0.33472619  0.79767986  0.89264503     0.08700
H1039       H  0.40851422  0.77661654  0.88838023     0.08700
H1040       H  0.39169846  0.81253431  0.88837605     0.05500
C1041       C  0.49014872  0.93636449  0.54161220    -0.20300
C1042       C  0.02312336  0.92645103  0.57058856    -0.06900
C1043       C  0.04617151  0.89826205  0.57506251     0.14000
C1044       C  0.02844468  0.88095693  0.55306646    -0.20400
C1045       C  0.98944637  0.89132910  0.52665142    -0.06900
C1046       C  0.47345695  0.91917220  0.51947728     0.14000
C1047       C  0.43584565  0.93153613  0.48974525    -0.23700
H1048       H  0.47439450  0.95792115  0.53721012     0.15300
H1049       H  0.04079973  0.85956751  0.55850102     0.15300
C1050       C  0.08616746  0.88638525  0.60399611    -0.23700
H1051       H  0.45782353  0.94321043  0.47408641     0.05500
H1052       H  0.39468712  0.94533098  0.49903070     0.08700
H1053       H  0.42643032  0.91623042  0.47307562     0.08700
H1054       H  0.06537653  0.89341797  0.62861898     0.08700
H1055       H  0.12577906  0.89256005  0.60176362     0.08700
H1056       H  0.09886378  0.86402339  0.60392319     0.05500
N1057       N  0.47097049  0.35083073  0.49865119    -0.03500
C1058       C  0.44792030  0.37198570  0.02240691    -0.00900
C1059       C  0.89027117  0.37961889  0.03058281    -0.23800
C1060       C  0.86895089  0.35959170  0.01902608    -0.24000
C1061       C  0.92345240  0.34281592  0.49484757    -0.01000
H1062       H  0.86663601  0.39758548  0.04404503     0.12800
H1063       H  0.82527213  0.35889079  0.02126882     0.12800
N1064       N  0.56962939  0.11227139  0.50276851    -0.03500
C1065       C  0.58052866  0.07589180  0.99151340    -0.00900
C1066       C  0.63892975  0.06532880  0.98608777    -0.23800
C1067       C  0.66129967  0.10282220  0.52046240    -0.24000
C1068       C  0.61982968  0.11812383  0.49869113    -0.01000
H1069       H  0.66644081  0.04594879  0.99443790     0.12800
H1070       H  0.70438769  0.10402644  0.52405758     0.12800
O1071       O  0.85696419  0.24992180  0.40801065    -0.81800
C1072       C  0.68135623  0.20430923  0.43673400     0.97500
O1073       O  0.70640739  0.21442400  0.45882098    -0.70900
O1074       O  0.81840158  0.19452099  0.45983753    -0.74500
Al1075     Al  0.76788899  0.23015957  0.45558002     1.49000
C1076       C  0.86708834  0.18568712  0.44651982     0.92800
O1077       O  0.81869218  0.19228073  0.36585226    -0.80700
O1078       O  0.71942673  0.26867672  0.36545191    -0.74300
Al1079     Al  0.83469014  0.22168618  0.38801657     1.90100
O1080       O  0.73221059  0.21558200  0.34927693    -0.73400
O1081       O  0.65769848  0.26431520  0.41877055    -0.73200
O1082       O  0.68110311  0.21040264  0.40581448    -0.78900
O1083       O  0.71782734  0.26568102  0.45918542    -0.77100
O1084       O  0.76852607  0.23033028  0.41042333    -1.13200
O1085       O  0.82912509  0.24588056  0.46013244    -0.72400
C1086       C  0.85640231  0.25576357  0.43903354     0.98300
C1087       C  0.77574946  0.19514353  0.34682147     0.94700
Al1088     Al  0.70295892  0.23910062  0.38688111     1.55600
O1089       O  0.87865827  0.19648322  0.42001567    -0.77000
C1090       C  0.66958748  0.27494381  0.44536734     0.98900
C1091       C  0.76337379  0.26595632  0.34745777     0.93700
O1092       O  0.80662941  0.24543478  0.35063308    -0.82400
N1093       N  0.82496635  0.36033424  0.25033131    -0.03500
C1094       C  0.84115296  0.33707870  0.26814899    -0.00900
C1095       C  0.89939407  0.32966643  0.27485600    -0.23800
C1096       C  0.91970596  0.34919399  0.26075315    -0.24000
C1097       C  0.87307767  0.36768582  0.24602077    -0.01000
H1098       H  0.92411092  0.31217406  0.28896925     0.12800
H1099       H  0.96336323  0.35011130  0.26165247     0.12800
N1100       N  0.72705185  0.10270075  0.23951693    -0.03500
C1101       C  0.71015717  0.12756835  0.25354872    -0.00900
C1102       C  0.65146868  0.13866863  0.25036766    -0.23800
C1103       C  0.63148865  0.11998144  0.23390822    -0.24000
C1104       C  0.67872165  0.09818512  0.22752402    -0.01000
H1105       H  0.62565578  0.15766883  0.26065425     0.12800
H1106       H  0.58711364  0.12154980  0.22863797     0.12800
O1107       O  0.61547635  0.99883016  0.15516863    -0.81800
C1108       C  0.93917930  0.45422649  0.18794425     0.97500
O1109       O  0.96654359  0.46402019  0.20907617    -0.70900
O1110       O  0.57732628  0.44440890  0.20897494    -0.74500
Al1111     Al  0.52741962  0.47986864  0.20460444     1.49000
C1112       C  0.62534964  0.43483932  0.19530834     0.92800
O1113       O  0.57600355  0.44055308  0.11510054    -0.80700
O1114       O  0.97782082  0.01709211  0.11339276    -0.74300
Al1115     Al  0.59288044  0.47020601  0.13635511     1.90100
O1116       O  0.98890582  0.46388819  0.09986975    -0.73400
O1117       O  0.91726298  0.01404789  0.16763035    -0.73200
O1118       O  0.93781126  0.46036943  0.15697086    -0.78900
O1119       O  0.97695108  0.01535082  0.20839542    -0.77100
O1120       O  0.52704636  0.47946086  0.15940380    -1.13200
O1121       O  0.58858179  0.99588757  0.20784400    -0.72400
C1122       C  0.61485389  0.00554309  0.18594316     0.98300
C1123       C  0.53199114  0.44327986  0.09695705     0.94700
Al1124     Al  0.96101270  0.48819807  0.13648402     1.55600
O1125       O  0.63739269  0.44521909  0.16859879    -0.77000
C1126       C  0.92901048  0.02459345  0.19422359     0.98900
C1127       C  0.52081597  0.01344749  0.09435518     0.93700
O1128       O  0.56446358  0.99326104  0.09833278    -0.82400
C1129       C  0.80672017  0.06200434  0.25067511    -0.20300
C1130       C  0.78450932  0.08607663  0.23259770    -0.06900
C1131       C  0.81411390  0.09108285  0.20379153     0.14000
C1132       C  0.86322821  0.07118676  0.19250654    -0.20400
C1133       C  0.88403671  0.04671462  0.20992835    -0.06900
C1134       C  0.85633640  0.04231277  0.23981056     0.14000
C1135       C  0.87655859  0.01603821  0.25882838    -0.23700
H1136       H  0.78333556  0.05791922  0.27221818     0.15300
H1137       H  0.88453379  0.07439178  0.16951225     0.15300
C1138       C  0.79266344  0.11703991  0.18428998    -0.23700
H1139       H  0.84949444  0.01574395  0.28131947     0.05500
H1140       H  0.92133497  0.01264206  0.26766153     0.08700
H1141       H  0.87463394  0.49940471  0.24190591     0.08700
H1142       H  0.79494107  0.13397960  0.20059354     0.08700
H1143       H  0.74766835  0.12033329  0.17611801     0.08700
H1144       H  0.81896197  0.11712465  0.16139131     0.05500
C1145       C  0.64176934  0.04655204  0.17199613    -0.20300
C1146       C  0.64162919  0.02651412  0.19594294    -0.06900
C1147       C  0.66221032  0.02851544  0.22915608     0.14000
C1148       C  0.67804446  0.05145019  0.23805109    -0.20400
C1149       C  0.67412931  0.07225658  0.21468608    -0.06900
C1150       C  0.65697903  0.06955183  0.18109370     0.14000
C1151       C  0.65337502  0.09116579  0.15498969    -0.23700
H1152       H  0.62693894  0.04496440  0.14640302     0.15300
H1153       H  0.69026770  0.05389282  0.26398904     0.15300
C1154       C  0.66754408  0.00679268  0.25542292    -0.23700
H1155       H  0.63854040  0.08589914  0.13003907     0.05500
H1156       H  0.69637091  0.09379255  0.15142610     0.08700
H1157       H  0.62275623  0.11047800  0.16328171     0.08700
H1158       H  0.69359892  0.98709194  0.24518869     0.08700
H1159       H  0.62453043  0.00569040  0.26281810     0.08700
H1160       H  0.68897368  0.01079930  0.27883272     0.05500
C1161       C  0.88801734  0.39224742  0.19511897    -0.20300
C1162       C  0.87629300  0.39262058  0.22980040    -0.06900
C1163       C  0.87749498  0.41494618  0.24951490     0.14000
C1164       C  0.89469246  0.43565983  0.23451069    -0.20400
C1165       C  0.91036191  0.43463580  0.20016565    -0.06900
C1166       C  0.90434491  0.41317482  0.17977631     0.14000
C1167       C  0.91836256  0.41110341  0.14248441    -0.23700
H1168       H  0.88781664  0.37471895  0.18041476     0.15300
H1169       H  0.89839226  0.45213063  0.25016421     0.15300
C1170       C  0.86301994  0.41636342  0.28670284    -0.23700
H1171       H  0.91255668  0.39257857  0.13106132     0.05500
H1172       H  0.46363032  0.41051188  0.13865897     0.08700
H1173       H  0.88960360  0.42861096  0.12873702     0.08700
H1174       H  0.89279536  0.39914172  0.30039942     0.08700
H1175       H  0.81841304  0.41569229  0.29006480     0.08700
H1176       H  0.86635435  0.43525640  0.29837504     0.05500
C1177       C  0.70545236  0.39256346  0.19040959    -0.20300
C1178       C  0.66958645  0.41222116  0.21134804    -0.06900
C1179       C  0.68127328  0.41171668  0.24657777     0.14000
C1180       C  0.73120650  0.39308836  0.25930276    -0.20400
C1181       C  0.76888433  0.37473023  0.23791042    -0.06900
C1182       C  0.75456994  0.37360145  0.20339465     0.14000
C1183       C  0.79100886  0.35299941  0.17959890    -0.23700
H1184       H  0.69605865  0.39251523  0.16354570     0.15300
H1185       H  0.74263115  0.39378640  0.28571808     0.15300
C1186       C  0.64354593  0.43177384  0.27057761    -0.23700
H1187       H  0.76524870  0.34047618  0.16918495     0.05500
H1188       H  0.82932965  0.33938526  0.19222976     0.08700
H1189       H  0.80548138  0.36329395  0.15827351     0.08700
H1190       H  0.59994680  0.42930633  0.27088709     0.08700
H1191       H  0.64086983  0.45256029  0.26251013     0.08700
H1192       H  0.66041457  0.42894300  0.29692646     0.05500
C1193       C  0.76721129  0.15036194  0.33299123    -0.20300
C1194       C  0.77473799  0.17456842  0.32158908    -0.06900
C1195       C  0.77137643  0.18054744  0.28662488     0.14000
C1196       C  0.75613981  0.16306578  0.26397689    -0.20400
C1197       C  0.74460265  0.13971076  0.27557027    -0.06900
C1198       C  0.75131747  0.13299589  0.31041920     0.14000
C1199       C  0.73710597  0.10876631  0.32433276    -0.23700
H1200       H  0.76936032  0.14609436  0.35994997     0.15300
H1201       H  0.74890102  0.16874927  0.23754353     0.15300
C1202       C  0.78198288  0.20582244  0.27341932    -0.23700
H1203       H  0.74201784  0.10728960  0.35232779     0.05500
H1204       H  0.76647150  0.09025557  0.31334660     0.08700
H1205       H  0.69209709  0.10992304  0.31806470     0.08700
H1206       H  0.82572459  0.20599819  0.28091005     0.08700
H1207       H  0.74992118  0.22379596  0.28404167     0.08700
H1208       H  0.77883832  0.20715696  0.24534734     0.05500
C1209       C  0.79682204  0.27704138  0.29236176    -0.20300
C1210       C  0.76638464  0.28636730  0.32218271    -0.08100
C1211       C  0.74874923  0.31425429  0.32925145     0.14000
C1212       C  0.76807792  0.33160105  0.30823667    -0.20400
C1213       C  0.80386300  0.32155354  0.28051055    -0.06900
C1214       C  0.81558183  0.29427266  0.27137404     0.14000
C1215       C  0.85093882  0.28235078  0.24082784    -0.23700
H1216       H  0.80947496  0.25576639  0.28650720     0.15300
H1217       H  0.75990218  0.35247533  0.31544657     0.15300
C1218       C  0.71392315  0.32544733  0.36023705    -0.23700
H1219       H  0.82596315  0.27268117  0.22429648     0.05500
H1220       H  0.89078480  0.26688236  0.24913637     0.08700
H1221       H  0.86298441  0.29763480  0.22538414     0.08700
H1222       H  0.73713260  0.31605652  0.38349019     0.08700
H1223       H  0.67195322  0.32128941  0.35892599     0.08700
H1224       H  0.70541732  0.34759321  0.36222374     0.05500
C1225       C  0.68793876  0.15666899  0.43922570    -0.20300
C1226       C  0.65687359  0.18314541  0.44720107    -0.06900
C1227       C  0.60844661  0.18832857  0.46830392     0.14000
C1228       C  0.59484915  0.16657636  0.48340595    -0.20400
C1229       C  0.62892021  0.14000146  0.47769497    -0.06900
C1230       C  0.67493358  0.13491340  0.45444087     0.14000
C1231       C  0.71095435  0.10669401  0.44577153    -0.23700
H1232       H  0.72472350  0.15305091  0.42259493     0.15300
H1233       H  0.55955140  0.17042844  0.50109697     0.15300
C1234       C  0.57177325  0.21670045  0.47504731    -0.23700
H1235       H  0.74211651  0.10669907  0.42531563     0.05500
H1236       H  0.68322413  0.09460038  0.43691342     0.08700
H1237       H  0.73594239  0.09674481  0.46813193     0.08700
H1238       H  0.55479261  0.22675985  0.45072083     0.08700
H1239       H  0.59758642  0.22816993  0.48768961     0.08700
H1240       H  0.59708826  0.19167776  0.02723572     0.05500
C1241       C  0.95277062  0.14593096  0.44091682    -0.20300
C1242       C  0.91290561  0.16342868  0.46234929    -0.06900
C1243       C  0.92276702  0.16170687  0.49780641     0.14000
C1244       C  0.97305398  0.14322242  0.51057432    -0.20400
C1245       C  0.01457293  0.12710146  0.48886192    -0.06900
C1246       C  0.00366858  0.12803158  0.45362928     0.14000
C1247       C  0.04606185  0.11085767  0.42910034    -0.23700
H1248       H  0.94532151  0.14721007  0.41378739     0.15300
H1249       H  0.98205920  0.14256979  0.53751522     0.15300
C1250       C  0.88290247  0.18055437  0.52213117    -0.23700
H1251       H  0.02820117  0.11241497  0.40300485     0.05500
H1252       H  0.05819635  0.08943677  0.43680274     0.08700
H1253       H  0.08487350  0.11752175  0.42797779     0.08700
H1254       H  0.83987538  0.17750025  0.52106583     0.08700
H1255       H  0.87940029  0.20175266  0.51546365     0.08700
H1256       H  0.89854872  0.17702811  0.54869679     0.05500
C1257       C  0.53716697  0.02026297  0.03421464    -0.20300
C1258       C  0.52089748  0.03183885  0.06603165    -0.06900
C1259       C  0.01323157  0.05954386  0.07081736     0.14000
C1260       C  0.02683345  0.07457949  0.04420204    -0.20400
C1261       C  0.54856420  0.06228786  0.01335940    -0.06900
C1262       C  0.55123549  0.03506718  0.00775671     0.14000
C1263       C  0.57050837  0.02111513  0.97442554    -0.23700
H1264       H  0.54185304  0.99903321  0.03066443     0.15300
H1265       H  0.02539671  0.09533447  0.04858454     0.15300
C1266       C  0.99515828  0.07267786  0.10462839    -0.23700
H1267       H  0.56771084  0.00018321  0.97452007     0.05500
H1268       H  0.61564344  0.01986521  0.96901512     0.08700
H1269       H  0.53037911  0.06165382  0.47252714     0.08700
H1270       H  0.02618948  0.06239266  0.12455061     0.08700
H1271       H  0.95195995  0.07132188  0.11122031     0.08700
H1272       H  0.99319668  0.09428912  0.10432679     0.05500
C1273       C  0.56172201  0.31586927  0.50852806    -0.20300
C1274       C  0.52753204  0.33604867  0.48755585    -0.06900
C1275       C  0.54476116  0.33843246  0.45394760     0.14000
C1276       C  0.59235141  0.31860895  0.44077315    -0.20400
C1277       C  0.62511327  0.29746403  0.46128211    -0.06900
C1278       C  0.61125552  0.29692670  0.49608936     0.14000
C1279       C  0.64677882  0.27575945  0.51991161    -0.23700
H1280       H  0.54832153  0.31443259  0.53441997     0.15300
H1281       H  0.60385226  0.31950123  0.41437898     0.15300
C1282       C  0.51280390  0.36198301  0.43226456    -0.23700
H1283       H  0.62830234  0.27783075  0.54581373     0.05500
H1284       H  0.69067301  0.27774075  0.52188954     0.08700
H1285       H  0.64933447  0.25537862  0.51051923     0.08700
H1286       H  0.50859985  0.37870581  0.95287736     0.08700
H1287       H  0.46698561  0.36309318  0.43008801     0.08700
H1288       H  0.53103430  0.36064065  0.40634436     0.05500
C1289       C  0.89723842  0.27546777  0.48633173    -0.20300
C1290       C  0.88609263  0.27505705  0.45136233    -0.06900
C1291       C  0.89807436  0.29478172  0.43009996     0.14000
C1292       C  0.91511149  0.31568341  0.44491365    -0.20400
C1293       C  0.92108137  0.31720666  0.48005013    -0.06900
C1294       C  0.91424191  0.29639813  0.50091566     0.14000
C1295       C  0.42266371  0.29685728  0.53871960    -0.23700
H1296       H  0.88999774  0.26001480  0.50266422     0.15300
H1297       H  0.91990190  0.33188067  0.42911266     0.15300
C1298       C  0.89009882  0.29510005  0.39214236    -0.23700
H1299       H  0.41591310  0.27890213  0.55125256     0.05500
H1300       H  0.39184494  0.31504702  0.54976080     0.08700
H1301       H  0.46701452  0.29706508  0.54440249     0.08700
H1302       H  0.84473098  0.29716014  0.38580880     0.08700
H1303       H  0.91852148  0.27624913  0.38107015     0.08700
H1304       H  0.90111837  0.31219714  0.37998667     0.05500
C1305       C  0.99488701  0.43210494  0.04288710    -0.20300
C1306       C  0.52819208  0.42278636  0.07193777    -0.06900
C1307       C  0.54736338  0.39481024  0.07879854     0.14000
C1308       C  0.52599167  0.37743628  0.05898403    -0.20400
C1309       C  0.48647156  0.38758602  0.03275744    -0.06900
C1310       C  0.97364834  0.41489563  0.02329299     0.14000
C1311       C  0.93472480  0.42684565  0.99390792    -0.23700
H1312       H  0.98181152  0.45342520  0.03677830     0.15300
H1313       H  0.53579787  0.35640300  0.06606709     0.15300
C1314       C  0.58653886  0.38347080  0.10826493    -0.23700
H1315       H  0.95768020  0.43650640  0.97602743     0.05500
H1316       H  0.89595291  0.44232013  0.00335566     0.08700
H1317       H  0.92086013  0.41157510  0.97951278     0.08700
H1318       H  0.56645893  0.39236176  0.13240358     0.08700
H1319       H  0.62777700  0.38806154  0.10496060     0.08700
H1320       H  0.59612640  0.36125466  0.11016736     0.05500
N1321       N  0.46271387  0.34807183  0.00619404    -0.03500
C1322       C  0.45337839  0.37508022  0.51415492    -0.00900
C1323       C  0.89490431  0.38226265  0.52002672    -0.23800
C1324       C  0.87590850  0.36179207  0.50763959    -0.24000
C1325       C  0.91443037  0.34048706  0.00439501    -0.01000
H1326       H  0.86913478  0.40021615  0.53268904     0.12800
H1327       H  0.83242597  0.36061909  0.50836336     0.12800
N1328       N  0.56239007  0.10192740  0.98107011    -0.03500
C1329       C  0.58019879  0.09310669  0.52727685    -0.00900
C1330       C  0.63625690  0.08677508  0.53836854    -0.23800
C1331       C  0.65688754  0.08517014  0.97097810    -0.24000
C1332       C  0.60912063  0.10730284  0.96811983    -0.01000
H1333       H  0.65638441  0.07230514  0.55780865     0.12800
H1334       H  0.70056647  0.08412073  0.96462696     0.12800
O1335       O  0.84617100  0.25013530  0.91315491    -0.81800
C1336       C  0.67227487  0.20191468  0.93673209     0.97500
O1337       O  0.69917742  0.21015598  0.95971426    -0.70900
O1338       O  0.81100273  0.19206491  0.96087353    -0.74500
Al1339     Al  0.75873564  0.22732522  0.95860439     1.49000
C1340       C  0.85916225  0.18405867  0.94691078     0.92800
O1341       O  0.81025466  0.19356361  0.86723960    -0.80700
O1342       O  0.70989348  0.26966341  0.87007016    -0.74300
Al1343     Al  0.82535930  0.22234949  0.89114010     1.90100
O1344       O  0.72322506  0.21689710  0.85145534    -0.73400
O1345       O  0.64859173  0.26357419  0.92243815    -0.73200
O1346       O  0.67083954  0.21044422  0.90673244    -0.78900
O1347       O  0.70687760  0.26205150  0.96481326    -0.77100
O1348       O  0.75915703  0.22970218  0.91349483    -1.13200
O1349       O  0.81822533  0.24407559  0.96473871    -0.72400
C1350       C  0.84492136  0.25504262  0.94448888     0.98300
C1351       C  0.76710819  0.19668799  0.84830523     0.94700
Al1352     Al  0.69361977  0.23940023  0.88981660     1.55600
O1353       O  0.87045876  0.19622165  0.92162313    -0.77000
C1354       C  0.65960969  0.27248434  0.95043275     0.98900
C1355       C  0.75332231  0.26736547  0.85184138     0.93700
O1356       O  0.79703441  0.24707710  0.85475853    -0.82400
N1357       N  0.81531027  0.36002831  0.75153986    -0.03500
C1358       C  0.82925066  0.33742012  0.77067777    -0.00900
C1359       C  0.88742887  0.32909310  0.77762475    -0.23800
C1360       C  0.91006947  0.34739879  0.76244081    -0.24000
C1361       C  0.86485599  0.36608703  0.74677769    -0.01000
H1362       H  0.91061506  0.31176107  0.79253227     0.12800
H1363       H  0.95427528  0.34750005  0.76341503     0.12800
N1364       N  0.71709453  0.10331625  0.74391708    -0.03500
C1365       C  0.70131638  0.12869105  0.75643109    -0.00900
C1366       C  0.64291210  0.14046797  0.75257821    -0.23800
C1367       C  0.62180038  0.12167732  0.73735854    -0.24000
C1368       C  0.66813680  0.09920694  0.73239053    -0.01000
H1369       H  0.61800444  0.16012708  0.76147578     0.12800
H1370       H  0.57731606  0.12375212  0.73171742     0.12800
O1371       O  0.60371114  0.00108816  0.65934906    -0.81800
C1372       C  0.93261462  0.45269304  0.68931147     0.97500
O1373       O  0.95731822  0.46348422  0.71092465    -0.70900
O1374       O  0.56850783  0.44503634  0.71084359    -0.74500
Al1375     Al  0.51717188  0.48016486  0.70732392     1.49000
C1376       C  0.61649136  0.43606779  0.69687870     0.92800
O1377       O  0.56772861  0.44342101  0.61596205    -0.80700
O1378       O  0.96437275  0.01893571  0.61919928    -0.74300
Al1379     Al  0.58242613  0.47278191  0.63902882     1.90100
O1380       O  0.98020980  0.46611062  0.60116002    -0.73400
O1381       O  0.90476327  0.01231987  0.67218251    -0.73200
O1382       O  0.93198611  0.45871103  0.65827737    -0.78900
O1383       O  0.96560073  0.01540227  0.71141252    -0.77100
O1384       O  0.51693021  0.48038651  0.66222151    -1.13200
O1385       O  0.57705731  0.99676400  0.71158131    -0.72400
C1386       C  0.60290248  0.00714184  0.69029923     0.98300
C1387       C  0.52437650  0.44615159  0.59734091     0.94700
Al1388     Al  0.95080821  0.48839174  0.63956000     1.55600
O1389       O  0.62778852  0.44699259  0.67033328    -0.77000
C1390       C  0.91668655  0.02356405  0.69817810     0.98900
C1391       C  0.50776631  0.01785110  0.60137730     0.93700
O1392       O  0.55185839  0.99750415  0.60246923    -0.82400
C1393       C  0.79133994  0.06026583  0.75305753    -0.20300
C1394       C  0.77402694  0.08572215  0.73757689    -0.06900
C1395       C  0.80769525  0.09141084  0.71114063     0.14000
C1396       C  0.85603464  0.07112625  0.69973266    -0.20400
C1397       C  0.87141019  0.04536265  0.71416134    -0.06900
C1398       C  0.83940093  0.03996583  0.74151967     0.14000
C1399       C  0.85381744  0.01229709  0.75707478    -0.23700
H1400       H  0.76539497  0.05585750  0.77312747     0.15300
H1401       H  0.88070342  0.07510063  0.67876045     0.15300
C1402       C  0.79116914  0.11841532  0.69378030    -0.23700
H1403       H  0.82424812  0.01139928  0.77807976     0.05500
H1404       H  0.89822332  0.00642709  0.76728730     0.08700
H1405       H  0.85024725  0.49766888  0.73741298     0.08700
H1406       H  0.79450236  0.13403613  0.71198516     0.08700
H1407       H  0.74665562  0.12337937  0.68392553     0.08700
H1408       H  0.81995062  0.11883399  0.67217848     0.05500
C1409       C  0.63543129  0.04675358  0.67675268    -0.20300
C1410       C  0.62935234  0.02801251  0.70118221    -0.06900
C1411       C  0.64428781  0.03115922  0.73536133     0.14000
C1412       C  0.65992964  0.05405110  0.74443504    -0.20400
C1413       C  0.66229290  0.07343090  0.72029161    -0.06900
C1414       C  0.65125507  0.06953690  0.68599355     0.14000
C1415       C  0.65468561  0.08976777  0.65932729    -0.23700
H1416       H  0.62501550  0.04435917  0.65046188     0.15300
H1417       H  0.66777879  0.05750386  0.77085043     0.15300
C1418       C  0.64410783  0.01072318  0.76250644    -0.23700
H1419       H  0.64472098  0.08360510  0.63366002     0.05500
H1420       H  0.69867643  0.09173727  0.65887951     0.08700
H1421       H  0.62357288  0.10965415  0.66501214     0.08700
H1422       H  0.67112681  0.99050877  0.75441938     0.08700
H1423       H  0.59972730  0.01034049  0.76758918     0.08700
H1424       H  0.66181518  0.01553180  0.78682978     0.05500
C1425       C  0.88650795  0.38925640  0.69629301    -0.20300
C1426       C  0.87043471  0.39052626  0.73038218    -0.06900
C1427       C  0.86910684  0.41336786  0.74977370     0.14000
C1428       C  0.88671807  0.43401826  0.73498180    -0.20400
C1429       C  0.90540467  0.43243562  0.70118370    -0.06900
C1430       C  0.90334113  0.41011982  0.68115508     0.14000
C1431       C  0.92199277  0.40719064  0.64460199    -0.23700
H1432       H  0.88875406  0.37123122  0.68196477     0.15300
H1433       H  0.88808234  0.45099091  0.75042534     0.15300
C1434       C  0.85172080  0.41541450  0.78652595    -0.23700
H1435       H  0.91954505  0.38794676  0.63350957     0.05500
H1436       H  0.46701393  0.40753416  0.64263895     0.08700
H1437       H  0.89377782  0.42384920  0.62927425     0.08700
H1438       H  0.88059306  0.39850130  0.80117658     0.08700
H1439       H  0.80701429  0.41468313  0.78878073     0.08700
H1440       H  0.85387267  0.43455893  0.79804318     0.05500
C1441       C  0.69806517  0.39443988  0.69105958    -0.20300
C1442       C  0.66137122  0.41341441  0.71241899    -0.06900
C1443       C  0.67219538  0.41201120  0.74779882     0.14000
C1444       C  0.72163833  0.39296588  0.76039558    -0.20400
C1445       C  0.75992147  0.37514517  0.73873757    -0.06900
C1446       C  0.74677795  0.37510785  0.70388389     0.14000
C1447       C  0.78374942  0.35513365  0.67961328    -0.23700
H1448       H  0.68940031  0.39508510  0.66406039     0.15300
H1449       H  0.73221024  0.39294822  0.78702654     0.15300
C1450       C  0.63403937  0.43149731  0.77223763    -0.23700
H1451       H  0.75795546  0.34321258  0.66775009     0.05500
H1452       H  0.82121919  0.34086866  0.69222937     0.08700
H1453       H  0.79947280  0.36597760  0.65936867     0.08700
H1454       H  0.59049211  0.42897963  0.77200035     0.08700
H1455       H  0.63135683  0.45246756  0.76503542     0.08700
H1456       H  0.65053499  0.42810162  0.79864191     0.05500
C1457       C  0.76560072  0.15096349  0.83343654    -0.20300
C1458       C  0.76612589  0.17652845  0.82256762    -0.06900
C1459       C  0.75642567  0.18375007  0.78812366     0.14000
C1460       C  0.74138860  0.16609512  0.76579751    -0.20400
C1461       C  0.73650981  0.14130783  0.77708463    -0.06900
C1462       C  0.75030066  0.13327582  0.81108994     0.14000
C1463       C  0.74437790  0.10714077  0.82460104    -0.23700
H1464       H  0.77285169  0.14568062  0.86001298     0.15300
H1465       H  0.72946509  0.17246186  0.73993816     0.15300
C1466       C  0.76087320  0.21026281  0.77506108    -0.23700
H1467       H  0.75304471  0.10496725  0.85227218     0.05500
H1468       H  0.77570701  0.09011031  0.81187383     0.08700
H1469       H  0.70026502  0.10601956  0.82007862     0.08700
H1470       H  0.80471309  0.21148800  0.78019362     0.08700
H1471       H  0.72885218  0.22721883  0.78766845     0.08700
H1472       H  0.75316098  0.21242339  0.74730065     0.05500
C1473       C  0.78315521  0.27841138  0.79581077    -0.20300
C1474       C  0.75484779  0.28778331  0.82623212    -0.08100
C1475       C  0.73774042  0.31566524  0.83319897     0.14000
C1476       C  0.75632838  0.33290469  0.81157342    -0.20400
C1477       C  0.79038630  0.32274743  0.78317786    -0.06900
C1478       C  0.80067670  0.29554950  0.77405621     0.14000
C1479       C  0.83399890  0.28355353  0.74286084    -0.23700
H1480       H  0.79532659  0.25716176  0.79005222     0.15300
H1481       H  0.74928969  0.35368126  0.81885665     0.15300
C1482       C  0.70438566  0.32691443  0.86463824    -0.23700
H1483       H  0.80792579  0.27389701  0.72713761     0.05500
H1484       H  0.87431789  0.26806565  0.75043885     0.08700
H1485       H  0.84503389  0.29883613  0.72687078     0.08700
H1486       H  0.72861638  0.31753986  0.88758907     0.08700
H1487       H  0.66236698  0.32275722  0.86414270     0.08700
H1488       H  0.69601134  0.34906174  0.86645064     0.05500
C1489       C  0.64461283  0.16211924  0.91825800    -0.20300
C1490       C  0.64545769  0.18050666  0.94420869    -0.06900
C1491       C  0.62473848  0.17667483  0.97671259     0.14000
C1492       C  0.60931038  0.15324371  0.98320847    -0.20400
C1493       C  0.61253575  0.13403766  0.95788024    -0.06900
C1494       C  0.62847765  0.13890373  0.92475681     0.14000
C1495       C  0.62953100  0.11940952  0.89641638    -0.23700
H1496       H  0.65943518  0.16515972  0.89312133     0.15300
H1497       H  0.59800744  0.14915545  0.00871748     0.15300
C1498       C  0.61838488  0.19706606  0.00461915    -0.23700
H1499       H  0.64192585  0.12668079  0.87198012     0.05500
H1500       H  0.58619305  0.11703191  0.89316742     0.08700
H1501       H  0.66076941  0.09953448  0.90214424     0.08700
H1502       H  0.59155714  0.21707233  0.99548969     0.08700
H1503       H  0.66099406  0.19823096  0.01287314     0.08700
H1504       H  0.53480629  0.21715769  0.49161874     0.05500
C1505       C  0.92200183  0.13750782  0.94048858    -0.20300
C1506       C  0.90421773  0.16072947  0.96036470    -0.06900
C1507       C  0.93494696  0.16267109  0.99014198     0.14000
C1508       C  0.98444142  0.14163388  0.99857189    -0.20400
C1509       C  0.00432654  0.11913987  0.97744382    -0.06900
C1510       C  0.97148565  0.11660990  0.94887114     0.14000
C1511       C  0.98968615  0.09212224  0.92669888    -0.23700
H1512       H  0.89819724  0.13617503  0.91767653     0.15300
H1513       H  0.00941732  0.14336491  0.02065250     0.15300
C1514       C  0.91775209  0.18766731  0.01166249    -0.23700
H1515       H  0.96087013  0.09385607  0.90444918     0.05500
H1516       H  0.98795091  0.07436955  0.94166497     0.08700
H1517       H  0.03392953  0.08900956  0.91732928     0.08700
H1518       H  0.87358877  0.19095081  0.02134992     0.08700
H1519       H  0.91912354  0.20537964  0.99628532     0.08700
H1520       H  0.94694212  0.18607750  0.03371250     0.05500
C1521       C  0.52505676  0.03518755  0.54559971    -0.20300
C1522       C  0.50889090  0.04055336  0.57947224    -0.06900
C1523       C  0.00361983  0.06624396  0.59310739     0.14000
C1524       C  0.01981215  0.08520571  0.57332456    -0.20400
C1525       C  0.54072630  0.07895261  0.54036325    -0.06900
C1526       C  0.54060835  0.05423908  0.52575996     0.14000
C1527       C  0.56013762  0.04732872  0.48990156    -0.23700
H1528       H  0.52848446  0.01547401  0.53524589     0.15300
H1529       H  0.02110905  0.10399933  0.58462434     0.15300
C1530       C  0.98539782  0.07288666  0.62926041    -0.23700
H1531       H  0.55978580  0.02669152  0.48298154     0.05500
H1532       H  0.60442086  0.04850105  0.48641519     0.08700
H1533       H  0.54290181  0.03204301  0.95354293     0.08700
H1534       H  0.01475237  0.05842866  0.64679848     0.08700
H1535       H  0.94122201  0.07165529  0.63252453     0.08700
H1536       H  0.98561419  0.09353333  0.63623088     0.05500
C1537       C  0.55162269  0.31177691  0.01453916    -0.20300
C1538       C  0.51828008  0.33273283  0.99431550    -0.06900
C1539       C  0.53590516  0.33602417  0.96105118     0.14000
C1540       C  0.58329152  0.31642398  0.94738233    -0.20400
C1541       C  0.61524059  0.29453551  0.96708030    -0.06900
C1542       C  0.60074187  0.29291790  0.00161122     0.14000
C1543       C  0.63493990  0.27066683  0.02451733    -0.23700
H1544       H  0.53791410  0.30977488  0.04023196     0.15300
H1545       H  0.59531023  0.31808520  0.92122600     0.15300
C1546       C  0.50477763  0.36027214  0.94025713    -0.23700
H1547       H  0.61591583  0.27196768  0.05022930     0.05500
H1548       H  0.67921283  0.27202105  0.02735650     0.08700
H1549       H  0.63647677  0.25082981  0.01369282     0.08700
H1550       H  0.51574661  0.38089738  0.44403012     0.08700
H1551       H  0.45876095  0.36182290  0.93780539     0.08700
H1552       H  0.52311100  0.35946150  0.91441307     0.05500
C1553       C  0.88320902  0.27431139  0.99330699    -0.20300
C1554       C  0.87343977  0.27439631  0.95813382    -0.06900
C1555       C  0.88662604  0.29433099  0.93775732     0.14000
C1556       C  0.90409907  0.31473166  0.95354530    -0.20400
C1557       C  0.90929028  0.31561375  0.98878501    -0.06900
C1558       C  0.90083988  0.29471229  0.00883663     0.14000
C1559       C  0.40910861  0.29429044  0.04670560    -0.23700
H1560       H  0.87498005  0.25874665  0.00901378     0.15300
H1561       H  0.91031255  0.33097458  0.93839442     0.15300
C1562       C  0.87994574  0.29532560  0.89968849    -0.23700
H1563       H  0.40149801  0.27624829  0.05850017     0.05500
H1564       H  0.37882116  0.31240902  0.05821990     0.08700
H1565       H  0.45370858  0.29396785  0.05269969     0.08700
H1566       H  0.83472693  0.29767972  0.89264513     0.08700
H1567       H  0.90851495  0.27661632  0.88838067     0.08700
H1568       H  0.89169951  0.31253390  0.88837659     0.05500
C1569       C  0.99014897  0.43636508  0.54161088    -0.20300
C1570       C  0.52312292  0.42645082  0.57058951    -0.06900
C1571       C  0.54617173  0.39826192  0.57506368     0.14000
C1572       C  0.52844469  0.38095653  0.55306814    -0.20400
C1573       C  0.48944541  0.39132838  0.52665349    -0.06900
C1574       C  0.97345710  0.41917298  0.51947572     0.14000
C1575       C  0.93584697  0.43153710  0.48974329    -0.23700
H1576       H  0.97439553  0.45792182  0.53720872     0.15300
H1577       H  0.54080027  0.35956706  0.55850292     0.15300
C1578       C  0.58616836  0.38638542  0.60399707    -0.23700
H1579       H  0.95782588  0.44321107  0.47408478     0.05500
H1580       H  0.89468867  0.44533220  0.49902825     0.08700
H1581       H  0.92643151  0.41623148  0.47307353     0.08700
H1582       H  0.56537794  0.39341818  0.62861985     0.08700
H1583       H  0.62578004  0.39256048  0.60176412     0.08700
H1584       H  0.59886515  0.36402361  0.60392433     0.05500
N1585       N  0.47097453  0.85082380  0.49866387    -0.03500
C1586       C  0.44792467  0.87198240  0.02241925    -0.00900
C1587       C  0.89026573  0.87962496  0.03056636    -0.23800
C1588       C  0.86894371  0.85959854  0.01900928    -0.24000
C1589       C  0.92344574  0.84282841  0.49482347    -0.01000
H1590       H  0.86663033  0.89759308  0.04402676     0.12800
H1591       H  0.82526201  0.85889930  0.02124965     0.12800
N1592       N  0.56963755  0.61227342  0.50277851    -0.03500
C1593       C  0.58053347  0.57589411  0.99152213    -0.00900
C1594       C  0.63893589  0.56533236  0.98610110    -0.23800
C1595       C  0.66130571  0.60282620  0.52047579    -0.24000
C1596       C  0.61983586  0.61812828  0.49870475    -0.01000
H1597       H  0.66644803  0.54595278  0.99445458     0.12800
H1598       H  0.70439269  0.60403139  0.52407273     0.12800
O1599       O  0.85695552  0.74992750  0.40799902    -0.81800
C1600       C  0.68135716  0.70431265  0.43673977     0.97500
O1601       O  0.70640865  0.71443000  0.45882371    -0.70900
O1602       O  0.81840213  0.69452582  0.45983333    -0.74500
Al1603     Al  0.76789157  0.73016448  0.45557612     1.49000
C1604       C  0.86708834  0.68569198  0.44651512     0.92800
O1605       O  0.81868822  0.69228121  0.36585199    -0.80700
O1606       O  0.71941522  0.76867558  0.36544616    -0.74300
Al1607     Al  0.83468449  0.72168895  0.38801056     1.90100
O1608       O  0.73220278  0.71557913  0.34927822    -0.73400
O1609       O  0.65769571  0.76431663  0.41877028    -0.73200
O1610       O  0.68110223  0.71040311  0.40581924    -0.78900
O1611       O  0.71783241  0.76568623  0.45917936    -0.77100
O1612       O  0.76852292  0.73033283  0.41041967    -1.13200
O1613       O  0.82912967  0.74588508  0.46012334    -0.72400
C1614       C  0.85639875  0.75576991  0.43902151     0.98300
C1615       C  0.77574296  0.69514099  0.34682433     0.94700
Al1616     Al  0.70295304  0.73910045  0.38688058     1.55600
O1617       O  0.87865817  0.69648862  0.42001116    -0.77000
C1618       C  0.66958912  0.77494693  0.44536474     0.98900
C1619       C  0.76335988  0.76595505  0.34744997     0.93700
O1620       O  0.80661718  0.74543425  0.35062519    -0.82400
N1621       N  0.82495535  0.86033464  0.25033196    -0.03500
C1622       C  0.84114035  0.83707749  0.26814631    -0.00900
C1623       C  0.89938140  0.82966377  0.27485368    -0.23800
C1624       C  0.91969536  0.84919165  0.26075378    -0.24000
C1625       C  0.87306808  0.86768529  0.24602291    -0.01000
H1626       H  0.92409738  0.81216973  0.28896493     0.12800
H1627       H  0.96335313  0.85010768  0.26165329     0.12800
N1628       N  0.72703610  0.60270006  0.23952031    -0.03500
C1629       C  0.71013585  0.62756355  0.25356302    -0.00900
C1630       C  0.65144508  0.63865909  0.25039072    -0.23800
C1631       C  0.63146955  0.61997320  0.23392507    -0.24000
C1632       C  0.67870754  0.59818225  0.22752815    -0.01000
H1633       H  0.62562810  0.65765522  0.26068726     0.12800
H1634       H  0.58709448  0.62153822  0.22865943     0.12800
O1635       O  0.61548041  0.49882611  0.15516085    -0.81800
C1636       C  0.93919120  0.95421936  0.18794306     0.97500
O1637       O  0.96655546  0.96401430  0.20907367    -0.70900
O1638       O  0.57731515  0.94441373  0.20898103    -0.74500
Al1639     Al  0.52740914  0.97987368  0.20460909     1.49000
C1640       C  0.62533893  0.93484356  0.19531524     0.92800
O1641       O  0.57599929  0.94055715  0.11510720    -0.80700
O1642       O  0.97782202  0.51709713  0.11339483    -0.74300
Al1643     Al  0.59287641  0.97021006  0.13636188     1.90100
O1644       O  0.98890913  0.96388350  0.09986577    -0.73400
O1645       O  0.91725806  0.51405643  0.16763027    -0.73200
O1646       O  0.93782276  0.96036097  0.15696915    -0.78900
O1647       O  0.97694084  0.51535623  0.20839946    -0.77100
O1648       O  0.52703990  0.97946603  0.15940835    -1.13200
O1649       O  0.58859305  0.49588255  0.20783775    -0.72400
C1650       C  0.61486191  0.50553834  0.18593534     0.98300
C1651       C  0.53198767  0.94328369  0.09696298     0.94700
Al1652     Al  0.96101759  0.98819146  0.13648186     1.55600
O1653       O  0.63738459  0.94522343  0.16860658    -0.77000
C1654       C  0.92900299  0.52460073  0.19422523     0.98900
C1655       C  0.52081238  0.51344411  0.09435183     0.93700
O1656       O  0.56446165  0.49325802  0.09832753    -0.82400
C1657       C  0.80673568  0.56201816  0.25068860    -0.20300
C1658       C  0.78449570  0.58608112  0.23259694    -0.06900
C1659       C  0.81407685  0.59108226  0.20377804     0.14000
C1660       C  0.86319214  0.57118744  0.19249232    -0.20400
C1661       C  0.88402958  0.54672333  0.20992830    -0.06900
C1662       C  0.85635764  0.54232934  0.23982571     0.14000
C1663       C  0.87661660  0.51606520  0.25886353    -0.23700
H1664       H  0.78336927  0.55793705  0.27224340     0.15300
H1665       H  0.88447837  0.57438751  0.16948787     0.15300
C1666       C  0.79260386  0.61703372  0.18426719    -0.23700
H1667       H  0.84956886  0.51577570  0.28136370     0.05500
H1668       H  0.92139424  0.51268470  0.26768621     0.08700
H1669       H  0.87456392  0.99938974  0.24185228     0.08700
H1670       H  0.79488472  0.63397903  0.20056004     0.08700
H1671       H  0.74760500  0.62032180  0.17610817     0.08700
H1672       H  0.81888549  0.61711487  0.16136035     0.05500
C1673       C  0.64172911  0.54655953  0.17199400    -0.20300
C1674       C  0.64163475  0.52651018  0.19593294    -0.06900
C1675       C  0.66225576  0.52850090  0.22913839     0.14000
C1676       C  0.67808647  0.55143622  0.23803592    -0.20400
C1677       C  0.67412294  0.57225463  0.21468111    -0.06900
C1678       C  0.65692958  0.56956091  0.18109458     0.14000
C1679       C  0.65326972  0.59118756  0.15499994    -0.23700
H1680       H  0.62686830  0.54497920  0.14640619     0.15300
H1681       H  0.69034180  0.55386982  0.26396996     0.15300
C1682       C  0.66763384  0.50676612  0.25539400    -0.23700
H1683       H  0.63840209  0.58592832  0.13005425     0.05500
H1684       H  0.69625327  0.59382269  0.15141546     0.08700
H1685       H  0.62265279  0.61049307  0.16331285     0.08700
H1686       H  0.69368497  0.48707086  0.24514142     0.08700
H1687       H  0.62463393  0.50565516  0.26280382     0.08700
H1688       H  0.68908782  0.51076600  0.27879737     0.05500
C1689       C  0.88800444  0.89224707  0.19512061    -0.20300
C1690       C  0.87628778  0.89261936  0.22980287    -0.06900
C1691       C  0.87750546  0.91494216  0.24951819     0.14000
C1692       C  0.89471142  0.93565323  0.23451366    -0.20400
C1693       C  0.91037188  0.93462999  0.20016696    -0.06900
C1694       C  0.90433945  0.91317207  0.17977728     0.14000
C1695       C  0.91834771  0.91110123  0.14248413    -0.23700
H1696       H  0.88779210  0.87471975  0.18041514     0.15300
H1697       H  0.89842405  0.95212087  0.25016779     0.15300
C1698       C  0.86303676  0.91635902  0.28670706    -0.23700
H1699       H  0.91252963  0.89257887  0.13106103     0.05500
H1700       H  0.46363738  0.91051948  0.13866049     0.08700
H1701       H  0.88959144  0.92861135  0.12873951     0.08700
H1702       H  0.89280809  0.89913542  0.30040121     0.08700
H1703       H  0.81842664  0.91569195  0.29007145     0.08700
H1704       H  0.86638136  0.93525040  0.29837985     0.05500
C1705       C  0.70543560  0.89256603  0.19041480    -0.20300
C1706       C  0.66957361  0.91222431  0.21135417    -0.06900
C1707       C  0.68126420  0.91171972  0.24658339     0.14000
C1708       C  0.73119937  0.89309156  0.25930633    -0.20400
C1709       C  0.76887323  0.87473260  0.23791300    -0.06900
C1710       C  0.75455363  0.87360338  0.20339819     0.14000
C1711       C  0.79098728  0.85300038  0.17960164    -0.23700
H1712       H  0.69603850  0.89251784  0.16355141     0.15300
H1713       H  0.74262831  0.89378991  0.28572183     0.15300
C1714       C  0.64353780  0.93177610  0.27058441    -0.23700
H1715       H  0.76522358  0.84047770  0.16919008     0.05500
H1716       H  0.82930947  0.83938554  0.19223128     0.08700
H1717       H  0.80545802  0.86329390  0.15827483     0.08700
H1718       H  0.59993895  0.92930804  0.27089460     0.08700
H1719       H  0.64085959  0.95256291  0.26251751     0.08700
H1720       H  0.66040823  0.92894474  0.29693278     0.05500
C1721       C  0.76716868  0.65036444  0.33300717    -0.20300
C1722       C  0.77472958  0.67456224  0.32159808    -0.06900
C1723       C  0.77139542  0.68053173  0.28663163     0.14000
C1724       C  0.75615413  0.66304940  0.26398639    -0.20400
C1725       C  0.74458240  0.63970403  0.27558590    -0.06900
C1726       C  0.75126698  0.63299889  0.31043826     0.14000
C1727       C  0.73701452  0.60878118  0.32435766    -0.23700
H1728       H  0.76929571  0.64610490  0.35996659     0.15300
H1729       H  0.74893632  0.66872649  0.23755052     0.15300
C1730       C  0.78203054  0.70579900  0.27342104    -0.23700
H1731       H  0.74191366  0.60730982  0.35235391     0.05500
H1732       H  0.76636471  0.59026212  0.31337984     0.08700
H1733       H  0.69200261  0.60994963  0.31808476     0.08700
H1734       H  0.82577218  0.70597003  0.28091984     0.08700
H1735       H  0.74997221  0.72377784  0.28403278     0.08700
H1736       H  0.77890407  0.70712692  0.24534782     0.05500
C1737       C  0.79680871  0.77703961  0.29235410    -0.20300
C1738       C  0.76636736  0.78636555  0.32217370    -0.08100
C1739       C  0.74872730  0.81425278  0.32924126     0.14000
C1740       C  0.76805734  0.83159972  0.30822770    -0.20400
C1741       C  0.80384872  0.82155204  0.28050431    -0.06900
C1742       C  0.81557068  0.79427095  0.27136786     0.14000
C1743       C  0.85093341  0.78234916  0.24082367    -0.23700
H1744       H  0.80946483  0.75576361  0.28649991     0.15300
H1745       H  0.75987838  0.85247407  0.31543712     0.15300
C1746       C  0.71389531  0.82544601  0.36022474    -0.23700
H1747       H  0.82596210  0.77267877  0.22429095     0.05500
H1748       H  0.89077935  0.76688134  0.24913456     0.08700
H1749       H  0.86297997  0.79763337  0.22538095     0.08700
H1750       H  0.73710181  0.81605693  0.38347919     0.08700
H1751       H  0.67192658  0.82128640  0.35891156     0.08700
H1752       H  0.70538553  0.84759230  0.36221032     0.05500
C1753       C  0.68794544  0.65667227  0.43923857    -0.20300
C1754       C  0.65687787  0.68314881  0.44721111    -0.06900
C1755       C  0.60844977  0.68833241  0.46831320     0.14000
C1756       C  0.59485354  0.66658051  0.48341712    -0.20400
C1757       C  0.62892665  0.64000560  0.47770833    -0.06900
C1758       C  0.67494128  0.63491706  0.45445505     0.14000
C1759       C  0.71096374  0.60669759  0.44578749    -0.23700
H1760       H  0.72473183  0.65305376  0.42260797     0.15300
H1761       H  0.55955467  0.67043283  0.50110711     0.15300
C1762       C  0.57177334  0.71670432  0.47505313    -0.23700
H1763       H  0.74212585  0.60670222  0.42533154     0.05500
H1764       H  0.68323510  0.59460308  0.43693051     0.08700
H1765       H  0.73595268  0.59674942  0.46814896     0.08700
H1766       H  0.55479286  0.72676170  0.45072510     0.08700
H1767       H  0.59758356  0.72817552  0.48769394     0.08700
H1768       H  0.59704585  0.69169217  0.02722219     0.05500
C1769       C  0.95276704  0.64593454  0.44090998    -0.20300
C1770       C  0.91290423  0.66343239  0.46234316    -0.06900
C1771       C  0.92276460  0.66170828  0.49780037     0.14000
C1772       C  0.97304977  0.64322208  0.51056743    -0.20400
C1773       C  0.01456740  0.62710124  0.48885415    -0.06900
C1774       C  0.00366258  0.62803289  0.45362141     0.14000
C1775       C  0.04605248  0.61085773  0.42909174    -0.23700
H1776       H  0.94531735  0.64721505  0.41377918     0.15300
H1777       H  0.98205470  0.64256790  0.53750805     0.15300
C1778       C  0.88290059  0.68055486  0.52212620    -0.23700
H1779       H  0.02819011  0.61241619  0.40299637     0.05500
H1780       H  0.05818313  0.58943703  0.43679351     0.08700
H1781       H  0.08486669  0.61751982  0.42796843     0.08700
H1782       H  0.83987236  0.67750154  0.52105949     0.08700
H1783       H  0.87940034  0.70175305  0.51546111     0.08700
H1784       H  0.89854613  0.67702662  0.54869216     0.05500
C1785       C  0.53716948  0.52026242  0.03421291    -0.20300
C1786       C  0.52089102  0.53183706  0.06602954    -0.06900
C1787       C  0.01324525  0.55954503  0.07081776     0.14000
C1788       C  0.02684259  0.57457927  0.04419952    -0.20400
C1789       C  0.54856440  0.56228910  0.01336316    -0.06900
C1790       C  0.55124096  0.53506816  0.00775785     0.14000
C1791       C  0.57052328  0.52111754  0.97442698    -0.23700
H1792       H  0.54186117  0.49903187  0.03066105     0.15300
H1793       H  0.02541057  0.59533427  0.04858037     0.15300
C1794       C  0.99518637  0.57267950  0.10463016    -0.23700
H1795       H  0.56772764  0.50018548  0.97451859     0.05500
H1796       H  0.61565855  0.51986884  0.96902108     0.08700
H1797       H  0.53045260  0.56163294  0.47252851     0.08700
H1798       H  0.02622364  0.56239317  0.12454878     0.08700
H1799       H  0.95198855  0.57132558  0.11122828     0.08700
H1800       H  0.99322922  0.59429007  0.10432690     0.05500
C1801       C  0.56173146  0.81586508  0.50853331    -0.20300
C1802       C  0.52753547  0.83604515  0.48756439    -0.06900
C1803       C  0.54475819  0.83843245  0.45395562     0.14000
C1804       C  0.59234802  0.81861105  0.44077700    -0.20400
C1805       C  0.62511582  0.79746538  0.46128273    -0.06900
C1806       C  0.61126495  0.79692511  0.49609070     0.14000
C1807       C  0.64679605  0.77575733  0.51990966    -0.23700
H1808       H  0.54833548  0.81442585  0.53442542     0.15300
H1809       H  0.60384398  0.81950557  0.41438238     0.15300
C1810       C  0.51279460  0.86198436  0.43227652    -0.23700
H1811       H  0.62832393  0.77782629  0.54581350     0.05500
H1812       H  0.69068831  0.77774068  0.52188543     0.08700
H1813       H  0.64935427  0.75537696  0.51051613     0.08700
H1814       H  0.50860196  0.87870614  0.95288746     0.08700
H1815       H  0.46697732  0.86309391  0.43010272     0.08700
H1816       H  0.53101996  0.86064453  0.40635517     0.05500
C1817       C  0.89723614  0.77547851  0.48631497    -0.20300
C1818       C  0.88608523  0.77506618  0.45134636    -0.06900
C1819       C  0.89805706  0.79479200  0.43008157     0.14000
C1820       C  0.91509251  0.81569538  0.44489218    -0.20400
C1821       C  0.92107107  0.81721903  0.48002809    -0.06900
C1822       C  0.91423737  0.79641058  0.50089592     0.14000
C1823       C  0.42267693  0.79684118  0.53873607    -0.23700
H1824       H  0.89000106  0.76002541  0.50264930     0.15300
H1825       H  0.91987586  0.83189298  0.42908979     0.15300
C1826       C  0.89007279  0.79510960  0.39212463    -0.23700
H1827       H  0.41592704  0.77888479  0.55126680     0.05500
H1828       H  0.39185981  0.81502968  0.54977982     0.08700
H1829       H  0.46702926  0.79704835  0.54441867     0.08700
H1830       H  0.84470447  0.79716715  0.38579519     0.08700
H1831       H  0.91849629  0.77625972  0.38105115     0.08700
H1832       H  0.90108463  0.81220799  0.37996662     0.05500
C1833       C  0.99489602  0.93210421  0.04287824    -0.20300
C1834       C  0.52818839  0.92278869  0.07194554    -0.06900
C1835       C  0.54736450  0.89481270  0.07880705     0.14000
C1836       C  0.52599587  0.87743686  0.05899364    -0.20400
C1837       C  0.48647328  0.88758480  0.03276762    -0.06900
C1838       C  0.97365466  0.91489657  0.02328279     0.14000
C1839       C  0.93473643  0.92684814  0.99389612    -0.23700
H1840       H  0.98182558  0.95342420  0.03677000     0.15300
H1841       H  0.53580626  0.85640405  0.06607685     0.15300
C1842       C  0.58654260  0.88347483  0.10827297    -0.23700
H1843       H  0.95769727  0.93650689  0.97601692     0.05500
H1844       H  0.89596595  0.94232445  0.00334232     0.08700
H1845       H  0.92086882  0.91157880  0.97950023     0.08700
H1846       H  0.56646259  0.89236570  0.13241214     0.08700
H1847       H  0.62777830  0.88806714  0.10496755     0.08700
H1848       H  0.59613364  0.86125880  0.11017610     0.05500
N1849       N  0.46271880  0.84806943  0.00620395    -0.03500
C1850       C  0.45337983  0.87507221  0.51416981    -0.00900
C1851       C  0.89490178  0.88227599  0.52000067    -0.23800
C1852       C  0.87590110  0.86180840  0.50760850    -0.24000
C1853       C  0.91442363  0.84049180  0.00438190    -0.01000
H1854       H  0.86913241  0.90023121  0.53265987     0.12800
H1855       H  0.83241648  0.86063960  0.50832519     0.12800
N1856       N  0.56239325  0.60192849  0.98107431    -0.03500
C1857       C  0.58020849  0.59310615  0.52728360    -0.00900
C1858       C  0.63626524  0.58677588  0.53837745    -0.23800
C1859       C  0.65689320  0.58517287  0.97098910    -0.24000
C1860       C  0.60912416  0.60730408  0.96812480    -0.01000
H1861       H  0.65639371  0.57230413  0.55781579     0.12800
H1862       H  0.70057207  0.58412410  0.96463979     0.12800
O1863       O  0.84616782  0.75013603  0.91314898    -0.81800
C1864       C  0.67227544  0.70191463  0.93672862     0.97500
O1865       O  0.69917830  0.71015577  0.95971094    -0.70900
O1866       O  0.81100401  0.69206547  0.96086819    -0.74500
Al1867     Al  0.75873596  0.72732551  0.95860047     1.49000
C1868       C  0.85916261  0.68405944  0.94690439     0.92800
O1869       O  0.81024708  0.69356623  0.86723325    -0.80700
O1870       O  0.70988584  0.76966623  0.87007037    -0.74300
Al1871     Al  0.82535416  0.72235115  0.89113429     1.90100
O1872       O  0.72321741  0.71690099  0.85145096    -0.73400
O1873       O  0.64858750  0.76357405  0.92243874    -0.73200
O1874       O  0.67083836  0.71044460  0.90672913    -0.78900
O1875       O  0.70687789  0.76205145  0.96481132    -0.77100
O1876       O  0.75915395  0.72970331  0.91349101    -1.13200
O1877       O  0.81822523  0.74407643  0.96473353    -0.72400
C1878       C  0.84491932  0.75504368  0.94448277     0.98300
C1879       C  0.76710002  0.69669187  0.84829905     0.94700
Al1880     Al  0.69361475  0.73940191  0.88981471     1.55600
O1881       O  0.87045671  0.69622219  0.92161573    -0.77000
C1882       C  0.65960791  0.77248394  0.95043291     0.98900
C1883       C  0.75331262  0.76736902  0.85184000     0.93700
O1884       O  0.79702512  0.74708044  0.85475447    -0.82400
N1885       N  0.81530513  0.86003107  0.75154087    -0.03500
C1886       C  0.82923988  0.83742330  0.77067951    -0.00900
C1887       C  0.88741750  0.82909379  0.77762784    -0.23800
C1888       C  0.91006378  0.84739761  0.76244435    -0.24000
C1889       C  0.86485406  0.86608711  0.74678000    -0.01000
H1890       H  0.91059965  0.81176126  0.79253602     0.12800
H1891       H  0.95427101  0.84749685  0.76341973     0.12800
N1892       N  0.71708886  0.60331687  0.74391584    -0.03500
C1893       C  0.70130858  0.62869182  0.75642906    -0.00900
C1894       C  0.64290349  0.64046740  0.75257690    -0.23800
C1895       C  0.62179384  0.62167534  0.73735859    -0.24000
C1896       C  0.66813218  0.59920582  0.73239070    -0.01000
H1897       H  0.61799514  0.66012573  0.76147337     0.12800
H1898       H  0.57731042  0.62374888  0.73171824     0.12800
O1899       O  0.60371892  0.50108297  0.65935227    -0.81800
C1900       C  0.93261892  0.95269132  0.68931397     0.97500
O1901       O  0.95732304  0.96348216  0.71092722    -0.70900
O1902       O  0.56850527  0.94503948  0.71084019    -0.74500
Al1903     Al  0.51716833  0.98016773  0.70732137     1.49000
C1904       C  0.61648943  0.93607216  0.69687576     0.92800
O1905       O  0.56772495  0.94342508  0.61595960    -0.80700
O1906       O  0.96436255  0.51893889  0.61919730    -0.74300
Al1907     Al  0.58242044  0.97278646  0.63902584     1.90100
O1908       O  0.98021577  0.96610768  0.60116244    -0.73400
O1909       O  0.90475644  0.51232168  0.67218085    -0.73200
O1910       O  0.93199026  0.95870934  0.65827987    -0.78900
O1911       O  0.96559487  0.51540475  0.71141006    -0.77100
O1912       O  0.51692531  0.98038969  0.66221907    -1.13200
O1913       O  0.57706103  0.49676071  0.71158414    -0.72400
C1914       C  0.60290778  0.50713774  0.69030218     0.98300
C1915       C  0.52437223  0.94615431  0.59733944     0.94700
Al1916     Al  0.95081499  0.98838926  0.63956223     1.55600
O1917       O  0.62778557  0.94699750  0.67033035    -0.77000
C1918       C  0.91668044  0.52356624  0.69817593     0.98900
C1919       C  0.50777650  0.51784724  0.60137940     0.93700
O1920       O  0.55186716  0.49749963  0.60247221    -0.82400
C1921       C  0.79133629  0.56026748  0.75305651    -0.20300
C1922       C  0.77402173  0.58572364  0.73757546    -0.06900
C1923       C  0.80768823  0.59141262  0.71113859     0.14000
C1924       C  0.85602718  0.57112817  0.69972968    -0.20400
C1925       C  0.87140454  0.54536475  0.71415928    -0.06900
C1926       C  0.83939797  0.53996795  0.74151878     0.14000
C1927       C  0.85381786  0.51229972  0.75707571    -0.23700
H1928       H  0.76539241  0.55585909  0.77312678     0.15300
H1929       H  0.88069294  0.57510229  0.67875722     0.15300
C1930       C  0.79116033  0.61841720  0.69377825    -0.23700
H1931       H  0.82425105  0.51140199  0.77808112     0.05500
H1932       H  0.89822482  0.50643100  0.76728744     0.08700
H1933       H  0.85024611  0.99766753  0.73741106     0.08700
H1934       H  0.79449258  0.63403840  0.71198328     0.08700
H1935       H  0.74664735  0.62338063  0.68392398     0.08700
H1936       H  0.81994107  0.61883626  0.67217643     0.05500
C1937       C  0.63543725  0.54674904  0.67675444    -0.20300
C1938       C  0.62935599  0.52800904  0.70118479    -0.06900
C1939       C  0.64428639  0.53115772  0.73536438     0.14000
C1940       C  0.65992620  0.55405026  0.74443735    -0.20400
C1941       C  0.66229179  0.57342888  0.72029291    -0.06900
C1942       C  0.65125996  0.56953282  0.68599458     0.14000
C1943       C  0.65469598  0.58976184  0.65932721    -0.23700
H1944       H  0.62502379  0.54435352  0.65046333     0.15300
H1945       H  0.66777201  0.55750443  0.77085276     0.15300
C1946       C  0.64410219  0.51072335  0.76251085    -0.23700
H1947       H  0.64473535  0.58359795  0.63366028     0.05500
H1948       H  0.69868798  0.59173071  0.65888146     0.08700
H1949       H  0.62358312  0.60964904  0.66500947     0.08700
H1950       H  0.67112210  0.49050860  0.75442646     0.08700
H1951       H  0.59972085  0.51034108  0.76759172     0.08700
H1952       H  0.66180589  0.51553352  0.78683477     0.05500
C1953       C  0.88651451  0.88925458  0.69629627    -0.20300
C1954       C  0.87043860  0.89052521  0.73038491    -0.06900
C1955       C  0.86910977  0.91336705  0.74977620     0.14000
C1956       C  0.88672171  0.93401712  0.73498427    -0.20400
C1957       C  0.90540910  0.93243411  0.70118634    -0.06900
C1958       C  0.90334719  0.91011788  0.68115808     0.14000
C1959       C  0.92199919  0.90718845  0.64460512    -0.23700
H1960       H  0.88876173  0.87122872  0.68196810     0.15300
H1961       H  0.88808533  0.95099019  0.75042776     0.15300
C1962       C  0.85172161  0.91541412  0.78652812    -0.23700
H1963       H  0.91955337  0.88794435  0.63351322     0.05500
H1964       H  0.46701135  0.90753459  0.64263782     0.08700
H1965       H  0.89378277  0.92384676  0.62927682     0.08700
H1966       H  0.88059267  0.89850151  0.80117917     0.08700
H1967       H  0.80701536  0.91468279  0.78878211     0.08700
H1968       H  0.85387273  0.93455919  0.79804534     0.05500
C1969       C  0.69806700  0.89444563  0.69105736    -0.20300
C1970       C  0.66137070  0.91341946  0.71241644    -0.06900
C1971       C  0.67219223  0.91201575  0.74779664     0.14000
C1972       C  0.72163402  0.89297009  0.76039421    -0.20400
C1973       C  0.75991888  0.87514963  0.73873677    -0.06900
C1974       C  0.74677861  0.87511334  0.70388245     0.14000
C1975       C  0.78375187  0.85513953  0.67961206    -0.23700
H1976       H  0.68940432  0.89509131  0.66405802     0.15300
H1977       H  0.73220342  0.89295160  0.78702591     0.15300
C1978       C  0.63403464  0.93150154  0.77223510    -0.23700
H1979       H  0.75795834  0.84321883  0.66774718     0.05500
H1980       H  0.82121967  0.84087448  0.69222832     0.08700
H1981       H  0.79947681  0.86598392  0.65936850     0.08700
H1982       H  0.59048670  0.92898365  0.77199678     0.08700
H1983       H  0.63135206  0.95247185  0.76503338     0.08700
H1984       H  0.65052858  0.92810574  0.79863949     0.05500
C1985       C  0.76560477  0.65096606  0.83342863    -0.20300
C1986       C  0.76611603  0.67653315  0.82256067    -0.06900
C1987       C  0.75640372  0.68375629  0.78811773     0.14000
C1988       C  0.74136792  0.66610031  0.76579266    -0.20400
C1989       C  0.73650172  0.64131078  0.77707966    -0.06900
C1990       C  0.75030611  0.63327732  0.81108329     0.14000
C1991       C  0.74440025  0.60713918  0.82459426    -0.23700
H1992       H  0.77286649  0.64568161  0.86000508     0.15300
H1993       H  0.72943635  0.67246749  0.73993404     0.15300
C1994       C  0.76083895  0.71027110  0.77505502    -0.23700
H1995       H  0.75307320  0.60496541  0.85226470     0.05500
H1996       H  0.77573466  0.59011150  0.81186479     0.08700
H1997       H  0.70029106  0.60601271  0.82007478     0.08700
H1998       H  0.80467968  0.71149872  0.78018301     0.08700
H1999       H  0.72881918  0.72722482  0.78766546     0.08700
H2000       H  0.75311834  0.71243255  0.74729535     0.05500
C2001       C  0.78313445  0.77841727  0.79580801    -0.20300
C2002       C  0.75483423  0.78778798  0.82623171    -0.08100
C2003       C  0.73773104  0.81566942  0.83320119     0.14000
C2004       C  0.75631816  0.83290939  0.81157594    -0.20400
C2005       C  0.79037091  0.82275274  0.78317815    -0.06900
C2006       C  0.80065502  0.79555581  0.77405378     0.14000
C2007       C  0.83397103  0.78356101  0.74285597    -0.23700
H2008       H  0.79530173  0.75716809  0.79004745     0.15300
H2009       H  0.74928406  0.85368462  0.81886064     0.15300
C2010       C  0.70438185  0.82691745  0.86464275    -0.23700
H2011       H  0.80789286  0.77390669  0.72713299     0.05500
H2012       H  0.87428932  0.76807152  0.75043090     0.08700
H2013       H  0.84500624  0.79884383  0.72686688     0.08700
H2014       H  0.72861497  0.81754113  0.88759186     0.08700
H2015       H  0.66236208  0.82276149  0.86414878     0.08700
H2016       H  0.69601032  0.84906465  0.86645696     0.05500
C2017       C  0.64463125  0.66211404  0.91825771    -0.20300
C2018       C  0.64545951  0.68050644  0.94420500    -0.06900
C2019       C  0.62472367  0.67668008  0.97670608     0.14000
C2020       C  0.60929497  0.65324944  0.98320396    -0.20400
C2021       C  0.61253720  0.63403821  0.95788009    -0.06900
C2022       C  0.62849618  0.63889880  0.92475822     0.14000
C2023       C  0.62956732  0.61939942  0.89642122    -0.23700
H2024       H  0.65946661  0.66515074  0.89312270     0.15300
H2025       H  0.59797957  0.64916560  0.00871197     0.15300
C2026       C  0.61835396  0.69707679  0.00460730    -0.23700
H2027       H  0.64197530  0.62666683  0.87198608     0.05500
H2028       H  0.58623225  0.61702068  0.89316474     0.08700
H2029       H  0.66080408  0.59952551  0.90215752     0.08700
H2030       H  0.59153049  0.71708084  0.99546992     0.08700
H2031       H  0.66095851  0.69824376  0.01286735     0.08700
H2032       H  0.53480577  0.71716187  0.49162437     0.05500
C2033       C  0.92199581  0.63750649  0.94048783    -0.20300
C2034       C  0.90421958  0.66073109  0.96035913    -0.06900
C2035       C  0.93495482  0.66267535  0.99013287     0.14000
C2036       C  0.98444713  0.64163739  0.99856459    -0.20400
C2037       C  0.00432459  0.61914000  0.97744102    -0.06900
C2038       C  0.97147810  0.61660793  0.94887183     0.14000
C2039       C  0.98967120  0.59211761  0.92670388    -0.23700
H2040       H  0.89818724  0.63617173  0.91767917     0.15300
H2041       H  0.00942600  0.64337013  0.02064181     0.15300
C2042       C  0.91776828  0.68767475  0.01164798    -0.23700
H2043       H  0.96085155  0.59384997  0.90445604     0.05500
H2044       H  0.98793408  0.57436721  0.94167447     0.08700
H2045       H  0.03391386  0.58900219  0.91733135     0.08700
H2046       H  0.87360643  0.69096179  0.02133822     0.08700
H2047       H  0.91914180  0.70538430  0.99626563     0.08700
H2048       H  0.94696213  0.68608663  0.03369579     0.05500
C2049       C  0.52509262  0.53517864  0.54560406    -0.20300
C2050       C  0.50890402  0.54054824  0.57947261    -0.06900
C2051       C  0.00362522  0.56624627  0.59311101     0.14000
C2052       C  0.01981936  0.58520756  0.57332836    -0.20400
C2053       C  0.54073948  0.57894817  0.54036454    -0.06900
C2054       C  0.54064627  0.55422981  0.52576508     0.14000
C2055       C  0.56020452  0.54731425  0.48991240    -0.23700
H2056       H  0.52853710  0.51546191  0.53525315     0.15300
H2057       H  0.02113178  0.60399777  0.58463023     0.15300
C2058       C  0.98541960  0.57288571  0.62926719    -0.23700
H2059       H  0.55987046  0.52667373  0.48299583     0.05500
H2060       H  0.60448554  0.54849179  0.48643601     0.08700
H2061       H  0.54292036  0.53204614  0.95354261     0.08700
H2062       H  0.01477363  0.55842294  0.64679969     0.08700
H2063       H  0.94124107  0.57165938  0.63253600     0.08700
H2064       H  0.98565046  0.59352991  0.63624072     0.05500
C2065       C  0.55162854  0.81177453  0.01454481    -0.20300
C2066       C  0.51828452  0.83273165  0.99432324    -0.06900
C2067       C  0.53590568  0.83602404  0.96105843     0.14000
C2068       C  0.58328972  0.81642393  0.94738663    -0.20400
C2069       C  0.61524020  0.79453441  0.96708276    -0.06900
C2070       C  0.60074540  0.79291555  0.00161403     0.14000
C2071       C  0.63494454  0.77066304  0.02451784    -0.23700
H2072       H  0.53792283  0.80977146  0.04023713     0.15300
H2073       H  0.59530479  0.81808600  0.92123143     0.15300
C2074       C  0.50477671  0.86027304  0.94026648    -0.23700
H2075       H  0.61592344  0.77196289  0.05023040     0.05500
H2076       H  0.67921936  0.77201643  0.02735580     0.08700
H2077       H  0.63647870  0.75082707  0.01369219     0.08700
H2078       H  0.51573799  0.88089838  0.44404387     0.08700
H2079       H  0.45875963  0.86182463  0.93781678     0.08700
H2080       H  0.52310670  0.85946319  0.91442176     0.05500
C2081       C  0.88320681  0.77431461  0.99329884    -0.20300
C2082       C  0.87343626  0.77439844  0.95812585    -0.06900
C2083       C  0.88661852  0.79433339  0.93774788     0.14000
C2084       C  0.90408960  0.81473520  0.95353421    -0.20400
C2085       C  0.90928301  0.81561814  0.98877365    -0.06900
C2086       C  0.90083550  0.79471685  0.00882675     0.14000
C2087       C  0.40911509  0.79428424  0.04671487    -0.23700
H2088       H  0.87498046  0.75875037  0.00900624     0.15300
H2089       H  0.91030040  0.83097836  0.93838215     0.15300
C2090       C  0.87993625  0.79532705  0.89967914    -0.23700
H2091       H  0.40150402  0.77624209  0.05850785     0.05500
H2092       H  0.37882868  0.81240262  0.05823080     0.08700
H2093       H  0.45371617  0.79396087  0.05270894     0.08700
H2094       H  0.83471813  0.79767965  0.89263681     0.08700
H2095       H  0.90850714  0.77661790  0.88837149     0.08700
H2096       H  0.89168685  0.81253567  0.88836615     0.05500
C2097       C  0.99016329  0.93636671  0.54160808    -0.20300
C2098       C  0.52311848  0.92645183  0.57059032    -0.06900
C2099       C  0.54617611  0.89826339  0.57506552     0.14000
C2100       C  0.52845124  0.88095529  0.55307325    -0.20400
C2101       C  0.48944320  0.89132412  0.52666182    -0.06900
C2102       C  0.97347205  0.91917733  0.51946844     0.14000
C2103       C  0.93587492  0.93154459  0.48973235    -0.23700
H2104       H  0.97441683  0.95792408  0.53720701     0.15300
H2105       H  0.54081482  0.85956589  0.55850884     0.15300
C2106       C  0.58617865  0.88638990  0.60399757    -0.23700
H2107       H  0.95786403  0.94321677  0.47407891     0.05500
H2108       H  0.89471534  0.94534196  0.49901344     0.08700
H2109       H  0.92645985  0.91624085  0.47305893     0.08700
H2110       H  0.56538907  0.89342197  0.62862107     0.08700
H2111       H  0.62578589  0.89256808  0.60176220     0.08700
H2112       H  0.59888231  0.86402814  0.60392575     0.05500
loop_ 
_geom_bond_atom_site_label_1 
_geom_bond_atom_site_label_2 
_geom_bond_distance 
_geom_bond_site_symmetry_2 
_ccdc_geom_bond_type 
N1          C218   1.437   1_655  S
N1         C1061   1.353       .  A
N1          C266   1.353       .  A
C2          N265   1.351       .  A
C2          C253   1.472       .  S
C2         C1059   1.384       .  A
C3            C4   1.374       .  A
C3         C1058   1.384       .  A
C3            H6   1.082       .  S
C4          C269   1.380       .  A
C4            H7   1.082       .  S
C5         N1057   1.353       .  A
C5          C237   1.472       .  S
C5          C268   1.379       .  A
N8         C1245   1.443       .  S
N8           C12   1.358       .  A
N8          C273   1.355       .  A
C9          N272   1.356       .  A
C9          C205   1.477   1_556  S
C9           C10   1.385       .  A
C10         C275   1.371       .  A
C10          H13   1.082       .  S
C11          C12   1.382       .  A
C11         C274   1.369       .  A
C11          H14   1.082       .  S
C12         C173   1.475       .  S
O15          C30   1.261       .  A
O15         Al23   1.885       .  S
C16         C170   1.460       .  S
C16          O26   1.259       .  A
C16          O17   1.266       .  A
O17         Al19   1.917       .  S
O18          C20   1.257       .  A
O18         Al19   1.903       .  S
Al19         O27   1.894       .  S
Al19         O29   1.915       .  S
Al19         O28   1.782       .  S
C20         C186   1.485       .  S
C20          O33   1.258       .  A
O21          C31   1.261       .  A
O21         Al23   1.902       .  S
O22          C35   1.261       .  A
O22         Al32   1.899       .  S
Al23         O36   1.912       .  S
Al23         O33   1.901       .  S
Al23         O28   1.781       .  S
O24          C31   1.265       .  A
O24         Al32   1.924       .  S
O25          C34   1.260       .  A
O25         Al32   1.918       .  S
O26         Al32   1.882       .  S
O27          C34   1.255       .  A
O28         Al32   1.787       .  S
O29          C30   1.267       .  A
C30         C234   1.484       .  S
C31         C138   1.469       .  S
C34         C221   1.482       .  S
C35         C154   1.473       .  S
C35          O36   1.265       .  A
N37         C125   1.436       .  S
N37          C41   1.351       .  A
N37          C38   1.350       .  A
C38         C157   1.469       .  S
C38          C39   1.384       .  A
C39          C40   1.373       .  A
C39          H42   1.082       .  S
C40          C41   1.379       .  A
C40          H43   1.082       .  S
C41         C106   1.468       .  S
N44          C74   1.440       .  S
N44          C48   1.355       .  A
N44          C45   1.355       .  A
C45         C141   1.475       .  S
C45          C46   1.382       .  A
C46          C47   1.374       .  A
C46          H49   1.082       .  S
C47          C48   1.380       .  A
C47          H50   1.082       .  S
C48          C93   1.477       .  S
O51          C66   1.263   1_565  A
O51        Al587   1.888       .  S
C52         C109   1.481       .  S
C52          O62   1.260       .  A
C52          O53   1.266       .  A
O53       Al1111   1.911       .  S
O54          C56   1.254       .  A
O54         Al55   1.891       .  S
Al55       O1109   1.911   1_455  S
Al55       O1647   1.896   1_455  S
Al55        O593   1.919       .  S
Al55         O64   1.784       .  S
C56         C122   1.480       .  S
C56          O69   1.258       .  A
O57          C67   1.262       .  A
O57         Al59   1.906       .  S
O58        C1127   1.261       .  A
O58        Al596   1.903   1_545  S
Al59         O69   1.906       .  S
Al59        O579   1.888       .  S
Al59        O600   1.914       .  S
Al59         O64   1.787       .  S
O60        C1123   1.265       .  A
O60         Al68   1.911       .  S
O61          C70   1.257       .  A
O61        Al596   1.903   1_545  S
O62         Al68   1.885       .  S
O63          C70   1.255       .  A
O63       Al1639   1.896   1_545  S
O64       Al1124   1.784   1_455  S
O65          C66   1.266   1_565  A
O65        Al583   1.919       .  S
C66          C90   1.483       .  S
C67         C250   1.477       .  S
C67        O1116   1.265   1_455  A
Al68        O586   1.903       .  S
Al68        O589   1.903       .  S
Al68       O1120   1.784       .  S
C70          C77   1.473       .  S
C71         C202   1.470       .  S
C71          O72   1.263   1_545  A
C71        O1114   1.261   1_455  A
O72        Al587   1.914       .  S
C73          C74   1.400       .  A
C73          C78   1.403       .  A
C73          H80   1.081       .  S
C74          C75   1.413       .  A
C75          C76   1.405       .  A
C75          C82   1.504       .  S
C76          C77   1.400       .  A
C76          H81   1.084       .  S
C77          C78   1.413       .  A
C78          C79   1.505       .  S
C79          H83   1.111       .  S
C79          H84   1.110       .  S
C79         H613   1.108   1_545  S
C82          H86   1.107       .  S
C82          H87   1.108       .  S
C82          H88   1.111       .  S
H85         C607   1.108       .  S
C89          C90   1.406       .  A
C89          C94   1.401       .  A
C89          H96   1.084       .  S
C90          C91   1.418       .  A
C91          C92   1.404       .  A
C91          C98   1.508       .  S
C92          C93   1.401       .  A
C92          H97   1.084       .  S
C93          C94   1.409       .  A
C94          C95   1.506       .  S
C95          H99   1.111       .  S
C95         H100   1.108       .  S
C95         H101   1.110       .  S
C98         H102   1.111   1_545  S
C98         H103   1.109       .  S
C98         H104   1.111       .  S
C105        C106   1.398       .  A
C105        C110   1.402       .  A
C105        H112   1.083       .  S
C106        C107   1.407       .  A
C107        C108   1.398       .  A
C107        C114   1.507       .  S
C108        C109   1.406       .  A
C108        H113   1.082       .  S
C109        C110   1.420       .  A
C110        C111   1.508       .  S
C111        H115   1.111       .  S
C111        H117   1.110       .  S
C111       H1172   1.108       .  S
C114        H118   1.110       .  S
C114        H119   1.109       .  S
C114        H120   1.111       .  S
H116       C1167   1.108       .  S
C121        C122   1.404       .  A
C121        C126   1.402       .  A
C121        H128   1.084       .  S
C122        C123   1.417       .  A
C123        C124   1.404       .  A
C123        C130   1.507       .  S
C124        C125   1.399       .  A
C124        H129   1.082       .  S
C125        C126   1.411       .  A
C126        C127   1.505       .  S
C127        H131   1.110       .  S
C127        H132   1.108       .  S
C127        H133   1.110       .  S
C130        H134   1.110       .  S
C130        H135   1.109       .  S
C130        H136   1.111       .  S
C137        C138   1.399       .  A
C137        C142   1.404       .  A
C137        H144   1.084       .  S
C138        C139   1.410       .  A
C139        C140   1.403       .  A
C139        C146   1.506       .  S
C140        C141   1.402       .  A
C140        H145   1.083       .  S
C141        C142   1.415       .  A
C142        C143   1.506       .  S
C143        H147   1.111       .  S
C143        H148   1.105       .  S
C143        H149   1.110       .  S
C146        H150   1.111       .  S
C146        H151   1.109       .  S
C146        H152   1.111       .  S
C153        C154   1.402       .  A
C153        C158   1.393       .  A
C153        H160   1.082       .  S
C154        C155   1.413       .  A
C155        C156   1.406       .  A
C155        C162   1.507       .  S
C156        C157   1.404       .  A
C156        H161   1.083       .  S
C157        C158   1.409       .  A
C158        C159   1.508       .  S
C159        H163   1.110       .  S
C159        H164   1.111       .  S
C159        H165   1.108       .  S
C162        H166   1.110       .  S
C162        H167   1.110       .  S
C162        H168   1.111       .  S
C169        C170   1.397       .  A
C169        C174   1.398       .  A
C169        H176   1.085       .  S
C170        C171   1.408       .  A
C171        C172   1.402       .  A
C171        C178   1.506       .  S
C172        C173   1.404       .  A
C172        H177   1.083       .  S
C173        C174   1.416       .  A
C174        C175   1.510       .  S
C175        H179   1.111       .  S
C175        H180   1.109       .  S
C175        H181   1.107       .  S
C178        H182   1.111       .  S
C178        H183   1.107       .  S
C178        H448   1.111       .  S
H184        C442   1.111       .  S
C185        C186   1.404       .  A
C185        C190   1.404       .  A
C185        H192   1.084       .  S
C186        C187   1.417       .  A
C187        C188   1.407       .  A
C187        C194   1.507       .  S
C188        C189   1.403       .  A
C188        H193   1.083       .  S
C189       N1064   1.443       .  S
C189        C190   1.413       .  A
C190        C191   1.505       .  S
C191        H195   1.111       .  S
C191        H196   1.106       .  S
C191        H197   1.103       .  S
C194        H198   1.110       .  S
C194        H199   1.111       .  S
C194        H200   1.111       .  S
C201        C202   1.400       .  A
C201        C206   1.399       .  A
C201        H208   1.085   1_545  S
C202       C1259   1.410       .  A
C203        C204   1.406       .  A
C203       C1258   1.410       .  A
C203        C210   1.506       .  S
C204       C1261   1.406       .  A
C204        H209   1.084       .  S
C205        C206   1.416       .  A
C205       C1260   1.406       .  A
C206        C207   1.511   1_554  S
C207        H211   1.111       .  S
C207        H212   1.106       .  S
C207        H477   1.106       .  S
C210        H214   1.110       .  S
C210        H215   1.110       .  S
C210        H216   1.111       .  S
H213        C471   1.107       .  S
C217        C218   1.398       .  A
C217        C222   1.404       .  A
C217        H224   1.083       .  S
C218        C219   1.409       .  A
C219        C220   1.406       .  A
C219        C226   1.505       .  S
C220        C221   1.405       .  A
C220        H225   1.084       .  S
C221        C222   1.418       .  A
C222        C223   1.507       .  S
C223        H227   1.111       .  S
C223        H228   1.110       .  S
C223        H229   1.108       .  S
C226        H231   1.107   1_455  S
C226        H232   1.111       .  S
C226        H494   1.110       .  S
H230        C490   1.110       .  S
C233        C234   1.407       .  A
C233        C238   1.400       .  A
C233        H240   1.084       .  S
C234        C235   1.420       .  A
C235        C236   1.403       .  A
C235        C242   1.509       .  S
C236        C237   1.399       .  A
C236        H241   1.081       .  S
C237        C238   1.407       .  A
C238       C1295   1.507       .  S
C239       C1294   1.507       .  S
C239        H243   1.111       .  S
C239        H244   1.110       .  S
C239        H245   1.109       .  S
C242        H246   1.109       .  S
C242        H247   1.110       .  S
C242        H248   1.111       .  S
C249        C254   1.395       .  A
C249       C1306   1.403       .  A
C249        H256   1.085       .  S
C250        C251   1.415       .  A
C250       C1305   1.403   1_455  A
C251        C252   1.408       .  A
C251        C258   1.507       .  S
C252        C253   1.404   1_455  A
C252        H257   1.084       .  S
C253       C1310   1.410       .  A
C254       C1309   1.410       .  A
C254        C255   1.508   1_554  S
C255        H259   1.110       .  S
C255        H260   1.111   1_556  S
C255        H261   1.109       .  S
C258        H262   1.110       .  S
C258        H263   1.110       .  S
C258        H264   1.111       .  S
N265        C482   1.435   1_654  S
N265       C1325   1.352       .  A
C266        C517   1.475       .  S
C266       C1323   1.385       .  A
C267       C1322   1.385       .  A
C267        C268   1.372       .  A
C267        H270   1.083       .  S
C268        H271   1.082       .  S
C269       N1321   1.352       .  A
C269        C501   1.473   1_554  S
N272       C1509   1.441       .  S
N272        C276   1.354       .  A
C273        C469   1.470       .  S
C273        C274   1.380       .  A
C274        H277   1.082       .  S
C275        C276   1.378       .  A
C275        H278   1.082       .  S
C276        C437   1.473       .  S
O279        C294   1.262       .  A
O279       Al287   1.882       .  S
C280        C434   1.480       .  S
C280        O290   1.260       .  A
C280        O281   1.267       .  A
O281       Al283   1.921       .  S
O282        C284   1.255       .  A
O282       Al283   1.899       .  S
Al283       O291   1.889       .  S
Al283       O293   1.919       .  S
Al283       O292   1.784       .  S
C284        C450   1.471       .  S
C284        O297   1.255       .  A
O285        C295   1.261       .  A
O285       Al287   1.897       .  S
O286        C299   1.259       .  A
O286       Al296   1.900       .  S
Al287       O300   1.911       .  S
Al287       O297   1.898       .  S
Al287       O292   1.783       .  S
O288        C295   1.265       .  A
O288       Al296   1.922       .  S
O289        C298   1.258       .  A
O289       Al296   1.908       .  S
O290       Al296   1.876       .  S
O291        C298   1.254       .  A
O292       Al296   1.789       .  S
O293        C294   1.269       .  A
C294        C498   1.485       .  S
C295        C402   1.467       .  S
C298        C485   1.480       .  S
C299        C418   1.473       .  S
C299        O300   1.263       .  A
N301        C389   1.437       .  S
N301        C305   1.352       .  A
N301        C302   1.351       .  A
C302        C421   1.469       .  S
C302        C303   1.383       .  A
C303        C304   1.372       .  A
C303        H306   1.082       .  S
C304        C305   1.379       .  A
C304        H307   1.082       .  S
C305        C370   1.467       .  S
N308        C338   1.442       .  S
N308        C312   1.354       .  A
N308        C309   1.355       .  A
C309        C405   1.473       .  S
C309        C310   1.383       .  A
C310        C311   1.372       .  A
C310        H313   1.082       .  S
C311        C312   1.379       .  A
C311        H314   1.082       .  S
C312        C357   1.470       .  S
O315        C330   1.261       .  A
O315       Al851   1.881   1_545  S
C316        C373   1.479       .  S
C316        O326   1.262       .  A
C316        O317   1.268       .  A
O317      Al1375   1.915       .  S
O318        C320   1.255       .  A
O318       Al319   1.888       .  S
Al319      O1373   1.915   1_455  S
Al319      O1911   1.898   1_455  S
Al319       O857   1.914       .  S
Al319       O328   1.780       .  S
C320        C386   1.480       .  S
C320        O333   1.260       .  A
O321        C331   1.260       .  A
O321       Al323   1.903       .  S
O322       C1391   1.261       .  A
O322       Al860   1.894   1_545  S
Al323       O843   1.881       .  S
Al323       O864   1.925       .  S
Al323       O333   1.912       .  S
Al323       O328   1.785       .  S
O324       C1387   1.265       .  A
O324       Al332   1.917       .  S
O325        C334   1.258       .  A
O325       Al860   1.911   1_545  S
O326       Al332   1.886       .  S
O327        C334   1.255       .  A
O327      Al1903   1.898   1_545  S
O328      Al1388   1.781   1_455  S
O329        C330   1.264   1_565  A
O329       Al847   1.914       .  S
C330        C354   1.483       .  S
C331        C514   1.479       .  S
C331       O1380   1.265   1_455  A
Al332       O850   1.894       .  S
Al332       O853   1.911       .  S
Al332      O1384   1.781       .  S
C334        C341   1.472       .  S
C335        C466   1.468       .  S
C335       O1378   1.261   1_455  A
C335        O336   1.266   1_545  A
O336       Al851   1.925       .  S
C337        C338   1.402       .  A
C337        C342   1.403       .  A
C337        H344   1.081       .  S
C338        C339   1.414       .  A
C339        C340   1.405       .  A
C339        C346   1.504       .  S
C340        C341   1.399       .  A
C340        H345   1.080       .  S
C341        C342   1.410       .  A
C342        C343   1.505       .  S
C343        H347   1.111       .  S
C343        H348   1.110       .  S
C343        H877   1.109   1_545  S
C346        H350   1.107       .  S
C346        H351   1.109       .  S
C346        H352   1.111       .  S
H349        C871   1.109       .  S
C353        C354   1.408       .  A
C353        C358   1.400       .  A
C353        H360   1.084       .  S
C354        C355   1.419       .  A
C355        C356   1.401       .  A
C355        C362   1.508       .  S
C356        C357   1.399       .  A
C356        H361   1.084       .  S
C357        C358   1.406       .  A
C358        C359   1.506       .  S
C359        H363   1.111       .  S
C359        H364   1.110       .  S
C359        H365   1.110       .  S
C362        H366   1.110   1_545  S
C362        H367   1.109       .  S
C362        H368   1.111       .  S
C369        C370   1.398       .  A
C369        C374   1.402       .  A
C369        H376   1.083       .  S
C370        C371   1.407       .  A
C371        C372   1.397       .  A
C371        C378   1.507       .  S
C372        C373   1.405       .  A
C372        H377   1.082       .  S
C373        C374   1.419       .  A
C374        C375   1.508       .  S
C375        H379   1.111       .  S
C375       H1436   1.108       .  S
C375        H381   1.110       .  S
C378        H382   1.110       .  S
C378        H383   1.108       .  S
C378        H384   1.111       .  S
H380       C1431   1.108       .  S
C385        C386   1.403       .  A
C385        C390   1.402       .  A
C385        H392   1.084       .  S
C386        C387   1.418       .  A
C387        C388   1.404       .  A
C387        C394   1.508       .  S
C388        C389   1.399       .  A
C388        H393   1.081       .  S
C389        C390   1.412       .  A
C390        C391   1.504       .  S
C391        H395   1.110       .  S
C391        H396   1.108       .  S
C391        H397   1.110       .  S
C394        H398   1.110       .  S
C394        H399   1.109       .  S
C394        H400   1.111       .  S
C401        C402   1.400       .  A
C401        C406   1.404       .  A
C401        H408   1.084       .  S
C402        C403   1.410       .  A
C403        C404   1.399       .  A
C403        C410   1.505       .  S
C404        C405   1.401       .  A
C404        H409   1.084       .  S
C405        C406   1.414       .  A
C406        C407   1.506       .  S
C407        H411   1.111       .  S
C407        H412   1.106       .  S
C407        H413   1.110       .  S
C410        H414   1.110       .  S
C410        H415   1.109       .  S
C410        H416   1.111       .  S
C417        C418   1.401       .  A
C417        C422   1.393       .  A
C417        H424   1.080       .  S
C418        C419   1.412       .  A
C419        C420   1.407       .  A
C419        C426   1.507       .  S
C420        C421   1.405       .  A
C420        H425   1.082       .  S
C421        C422   1.409       .  A
C422        C423   1.508       .  S
C423        H427   1.110       .  S
C423        H428   1.111       .  S
C423        H429   1.108       .  S
C426        H430   1.110       .  S
C426        H431   1.110       .  S
C426        H432   1.111       .  S
C433        C434   1.407       .  A
C433        C438   1.400       .  A
C433        H440   1.084       .  S
C434        C435   1.415       .  A
C435        C436   1.402       .  A
C435        C442   1.507   1_556  S
C436        C437   1.400       .  A
C436        H441   1.082   1_556  S
C437        C438   1.408       .  A
C438        C439   1.506       .  S
C439        H443   1.110       .  S
C439        H444   1.109       .  S
C439        H445   1.109       .  S
C442        H446   1.110   1_554  S
C442        H447   1.109       .  S
C449        C450   1.399       .  A
C449        C454   1.402       .  A
C449        H456   1.084       .  S
C450        C451   1.413       .  A
C451        C452   1.407       .  A
C451        C458   1.507   1_556  S
C452        C453   1.403       .  A
C452        H457   1.082   1_556  S
C453       N1328   1.441       .  S
C453        C454   1.411       .  A
C454        C455   1.502       .  S
C455        H459   1.111       .  S
C455        H460   1.106       .  S
C455        H461   1.109       .  S
C458        H462   1.110       .  S
C458        H463   1.111   1_554  S
C458        H464   1.111       .  S
C465        C466   1.400       .  A
C465        C470   1.400       .  A
C465        H472   1.085       .  S
C466       C1523   1.412       .  A
C467       C1522   1.412       .  A
C467        C468   1.403       .  A
C467        C474   1.506       .  S
C468       C1525   1.402       .  A
C468        H473   1.084       .  S
C469       C1524   1.402       .  A
C469        C470   1.411       .  A
C470        C471   1.504       .  S
C471        H475   1.111       .  S
C471        H476   1.110       .  S
C474        H478   1.110       .  S
C474        H479   1.108       .  S
C474        H480   1.111       .  S
C481        C482   1.397   1_554  A
C481        C486   1.403       .  A
C481        H488   1.083       .  S
C482        C483   1.408       .  A
C483        C484   1.405       .  A
C483        C490   1.504       .  S
C484        C485   1.405       .  A
C484        H489   1.084       .  S
C485        C486   1.417   1_556  A
C486        C487   1.507       .  S
C487        H491   1.111       .  S
C487        H492   1.110       .  S
C487        H493   1.108       .  S
C490        H495   1.107   1_455  S
C490        H496   1.111       .  S
C497        C498   1.407       .  A
C497        C502   1.400   1_556  A
C497        H504   1.084   1_556  S
C498        C499   1.422       .  A
C499        C500   1.403       .  A
C499        C506   1.510       .  S
C500        C501   1.398       .  A
C500        H505   1.081       .  S
C501        C502   1.407   1_556  A
C502       C1559   1.507       .  S
C503       C1558   1.507       .  S
C503        H507   1.111       .  S
C503        H508   1.109       .  S
C503        H509   1.110       .  S
C506        H510   1.109       .  S
C506        H511   1.110       .  S
C506        H512   1.111       .  S
C513       C1570   1.403       .  A
C513        C518   1.395       .  A
C513        H520   1.085       .  S
C514       C1569   1.403   1_455  A
C514        C515   1.416       .  A
C515        C516   1.409       .  A
C515        C522   1.507       .  S
C516        C517   1.404   1_455  A
C516        H521   1.083       .  S
C517       C1574   1.411       .  A
C518       C1573   1.411       .  A
C518        C519   1.508       .  S
C519        H523   1.110       .  S
C519        H524   1.111       .  S
C519        H525   1.109       .  S
C522        H526   1.109       .  S
C522        H527   1.110       .  S
C522        H528   1.111       .  S
N529        C746   1.437   1_655  S
N529       C1589   1.353       .  A
N529        C794   1.353       .  A
C530        N793   1.351       .  A
C530        C781   1.472       .  S
C530       C1587   1.384       .  A
C531       C1586   1.384       .  A
C531        C532   1.374       .  A
C531        H534   1.082       .  S
C532        C797   1.380       .  A
C532        H535   1.082       .  S
C533       N1585   1.353       .  A
C533        C765   1.472       .  S
C533        C796   1.379       .  A
N536       C1773   1.443       .  S
N536        C540   1.358       .  A
N536        C801   1.355       .  A
C537        N800   1.356       .  A
C537        C733   1.477   1_556  S
C537        C538   1.385       .  A
C538        C803   1.371       .  A
C538        H541   1.082       .  S
C539        C802   1.369       .  A
C539        C540   1.382       .  A
C539        H542   1.082       .  S
C540        C701   1.475       .  S
O543        C558   1.261       .  A
O543       Al551   1.885       .  S
C544        C698   1.460       .  S
C544        O554   1.259       .  A
C544        O545   1.266       .  A
O545       Al547   1.917       .  S
O546        C548   1.257       .  A
O546       Al547   1.903       .  S
Al547       O555   1.894       .  S
Al547       O557   1.915       .  S
Al547       O556   1.782       .  S
C548        C714   1.485       .  S
C548        O561   1.258       .  A
O549        C559   1.261       .  A
O549       Al551   1.902       .  S
O550        C563   1.261       .  A
O550       Al560   1.899       .  S
Al551       O564   1.912       .  S
Al551       O561   1.901       .  S
Al551       O556   1.781       .  S
O552        C559   1.265       .  A
O552       Al560   1.924       .  S
O553        C562   1.260       .  A
O553       Al560   1.918       .  S
O554       Al560   1.882       .  S
O555        C562   1.255       .  A
O556       Al560   1.787       .  S
O557        C558   1.267       .  A
C558        C762   1.484       .  S
C559        C666   1.469       .  S
C562        C749   1.482       .  S
C563        C682   1.473       .  S
C563        O564   1.265       .  A
N565        C653   1.436       .  S
N565        C569   1.351       .  A
N565        C566   1.350       .  A
C566        C685   1.469       .  S
C566        C567   1.384       .  A
C567        C568   1.373       .  A
C567        H570   1.082       .  S
C568        C569   1.379       .  A
C568        H571   1.082       .  S
C569        C634   1.468       .  S
N572        C602   1.440       .  S
N572        C576   1.355       .  A
N572        C573   1.355       .  A
C573        C669   1.475       .  S
C573        C574   1.382       .  A
C574        C575   1.374       .  A
C574        H577   1.082       .  S
C575        C576   1.380       .  A
C575        H578   1.082       .  S
C576        C621   1.477       .  S
O579        C594   1.263       .  A
C580        C637   1.481       .  S
C580        O590   1.260       .  A
C580        O581   1.266       .  A
O581      Al1639   1.911       .  S
O582        C584   1.254       .  A
O582       Al583   1.891       .  S
Al583      O1637   1.911   1_455  S
Al583      O1119   1.896   1_465  S
Al583       O592   1.784       .  S
C584        C650   1.480       .  S
C584        O597   1.258       .  A
O585        C595   1.262       .  A
O585       Al587   1.906       .  S
O586       C1655   1.261       .  A
Al587       O597   1.906       .  S
Al587       O592   1.787       .  S
O588       C1651   1.265       .  A
O588       Al596   1.911       .  S
O589        C598   1.257       .  A
O590       Al596   1.885       .  S
O591        C598   1.255       .  A
O591      Al1111   1.896       .  S
O592      Al1652   1.784   1_455  S
O593        C594   1.266       .  A
C594        C618   1.483       .  S
C595        C778   1.477       .  S
C595       O1644   1.265   1_455  A
Al596      O1648   1.784       .  S
C598        C605   1.473       .  S
C599        C730   1.470       .  S
C599       O1642   1.261   1_455  A
C599        O600   1.263       .  A
C601        C602   1.400       .  A
C601        C606   1.403       .  A
C601        H608   1.081       .  S
C602        C603   1.413       .  A
C603        C604   1.405       .  A
C603        C610   1.504       .  S
C604        C605   1.400       .  A
C604        H609   1.084       .  S
C605        C606   1.413       .  A
C606        C607   1.505       .  S
C607        H611   1.111       .  S
C607        H612   1.110       .  S
C610        H614   1.107       .  S
C610        H615   1.108       .  S
C610        H616   1.111       .  S
C617        C618   1.406       .  A
C617        C622   1.401       .  A
C617        H624   1.084       .  S
C618        C619   1.418       .  A
C619        C620   1.404       .  A
C619        C626   1.508       .  S
C620        C621   1.401       .  A
C620        H625   1.084       .  S
C621        C622   1.409       .  A
C622        C623   1.506       .  S
C623        H627   1.111       .  S
C623        H628   1.108       .  S
C623        H629   1.110       .  S
C626        H630   1.111       .  S
C626        H631   1.109       .  S
C626        H632   1.111       .  S
C633        C634   1.398       .  A
C633        C638   1.402       .  A
C633        H640   1.083       .  S
C634        C635   1.407       .  A
C635        C636   1.398       .  A
C635        C642   1.507       .  S
C636        C637   1.406       .  A
C636        H641   1.082       .  S
C637        C638   1.420       .  A
C638        C639   1.508       .  S
C639        H643   1.111       .  S
C639       H1700   1.108       .  S
C639        H645   1.110       .  S
C642        H646   1.110       .  S
C642        H647   1.109       .  S
C642        H648   1.111       .  S
H644       C1695   1.108       .  S
C649        C650   1.404       .  A
C649        C654   1.402       .  A
C649        H656   1.084       .  S
C650        C651   1.417       .  A
C651        C652   1.404       .  A
C651        C658   1.507       .  S
C652        C653   1.399       .  A
C652        H657   1.082       .  S
C653        C654   1.411       .  A
C654        C655   1.505       .  S
C655        H659   1.110       .  S
C655        H660   1.108       .  S
C655        H661   1.110       .  S
C658        H662   1.110       .  S
C658        H663   1.109       .  S
C658        H664   1.111       .  S
C665        C666   1.399       .  A
C665        C670   1.404       .  A
C665        H672   1.084       .  S
C666        C667   1.410       .  A
C667        C668   1.403       .  A
C667        C674   1.506       .  S
C668        C669   1.402       .  A
C668        H673   1.083       .  S
C669        C670   1.415       .  A
C670        C671   1.506       .  S
C671        H675   1.111       .  S
C671        H676   1.105       .  S
C671        H677   1.110       .  S
C674        H678   1.111       .  S
C674        H679   1.109       .  S
C674        H680   1.111       .  S
C681        C682   1.402       .  A
C681        C686   1.393       .  A
C681        H688   1.082       .  S
C682        C683   1.413       .  A
C683        C684   1.406       .  A
C683        C690   1.507       .  S
C684        C685   1.404       .  A
C684        H689   1.083       .  S
C685        C686   1.409       .  A
C686        C687   1.508       .  S
C687        H691   1.110       .  S
C687        H692   1.111       .  S
C687        H693   1.108       .  S
C690        H694   1.110       .  S
C690        H695   1.110       .  S
C690        H696   1.111       .  S
C697        C698   1.397       .  A
C697        C702   1.398       .  A
C697        H704   1.085       .  S
C698        C699   1.408       .  A
C699        C700   1.402       .  A
C699        C706   1.506       .  S
C700        C701   1.404       .  A
C700        H705   1.083       .  S
C701        C702   1.416       .  A
C702        C703   1.510       .  S
C703        H707   1.111       .  S
C703        H708   1.109       .  S
C703        H709   1.107       .  S
C706        H710   1.111       .  S
C706        H711   1.107       .  S
C706        H976   1.111       .  S
H712        C970   1.111       .  S
C713        C714   1.404       .  A
C713        C718   1.404       .  A
C713        H720   1.084       .  S
C714        C715   1.417       .  A
C715        C716   1.407       .  A
C715        C722   1.507       .  S
C716        C717   1.403       .  A
C716        H721   1.083       .  S
C717       N1592   1.443       .  S
C717        C718   1.413       .  A
C718        C719   1.505       .  S
C719        H723   1.111       .  S
C719        H724   1.106       .  S
C719        H725   1.103       .  S
C722        H726   1.110       .  S
C722        H727   1.111       .  S
C722        H728   1.111       .  S
C729        C730   1.400       .  A
C729        C734   1.399       .  A
C729        H736   1.085       .  S
C730       C1787   1.410       .  A
C731       C1786   1.410       .  A
C731        C732   1.406       .  A
C731        C738   1.506       .  S
C732       C1789   1.406       .  A
C732        H737   1.084       .  S
C733       C1788   1.406       .  A
C733        C734   1.416       .  A
C734        C735   1.511   1_554  S
C735        H739   1.111       .  S
C735        H740   1.106       .  S
C735       H1005   1.106       .  S
C738        H742   1.110       .  S
C738        H743   1.110       .  S
C738        H744   1.111       .  S
H741        C999   1.107       .  S
C745        C746   1.398       .  A
C745        C750   1.404       .  A
C745        H752   1.083       .  S
C746        C747   1.409       .  A
C747        C748   1.406       .  A
C747        C754   1.505       .  S
C748        C749   1.405       .  A
C748        H753   1.084       .  S
C749        C750   1.418       .  A
C750        C751   1.507       .  S
C751        H755   1.111       .  S
C751        H756   1.110       .  S
C751        H757   1.108       .  S
C754       H1022   1.110       .  S
C754        H759   1.107   1_455  S
C754        H760   1.111       .  S
H758       C1018   1.110       .  S
C761        C762   1.407       .  A
C761        C766   1.400       .  A
C761        H768   1.084       .  S
C762        C763   1.420       .  A
C763        C764   1.403       .  A
C763        C770   1.509       .  S
C764        C765   1.399       .  A
C764        H769   1.081       .  S
C765        C766   1.407       .  A
C766       C1823   1.507       .  S
C767       C1822   1.507       .  S
C767        H771   1.111       .  S
C767        H772   1.110       .  S
C767        H773   1.109       .  S
C770        H774   1.109       .  S
C770        H775   1.110       .  S
C770        H776   1.111       .  S
C777       C1834   1.403       .  A
C777        C782   1.395       .  A
C777        H784   1.085       .  S
C778       C1833   1.403   1_455  A
C778        C779   1.415       .  A
C779        C780   1.408       .  A
C779        C786   1.507       .  S
C780        C781   1.404   1_455  A
C780        H785   1.084       .  S
C781       C1838   1.410       .  A
C782       C1837   1.410       .  A
C782        C783   1.508   1_554  S
C783        H787   1.110       .  S
C783        H788   1.111   1_556  S
C783        H789   1.109       .  S
C786        H790   1.110       .  S
C786        H791   1.110       .  S
C786        H792   1.111       .  S
N793       C1010   1.435   1_654  S
N793       C1853   1.352       .  A
C794       C1045   1.475       .  S
C794       C1851   1.385       .  A
C795       C1850   1.385       .  A
C795        C796   1.372       .  A
C795        H798   1.083       .  S
C796        H799   1.082       .  S
C797       N1849   1.352       .  A
C797       C1029   1.473   1_554  S
N800       C2037   1.441       .  S
N800        C804   1.354       .  A
C801        C997   1.470       .  S
C801        C802   1.380       .  A
C802        H805   1.082       .  S
C803        C804   1.378       .  A
C803        H806   1.082       .  S
C804        C965   1.473       .  S
O807        C822   1.262       .  A
O807       Al815   1.882       .  S
C808        C962   1.480       .  S
C808        O818   1.260       .  A
C808        O809   1.267       .  A
O809       Al811   1.921       .  S
O810        C812   1.255       .  A
O810       Al811   1.899       .  S
Al811       O819   1.889       .  S
Al811       O821   1.919       .  S
Al811       O820   1.784       .  S
C812        C978   1.471       .  S
C812        O825   1.255       .  A
O813        C823   1.261       .  A
O813       Al815   1.897       .  S
O814        C827   1.259       .  A
O814       Al824   1.900       .  S
Al815       O828   1.911       .  S
Al815       O825   1.898       .  S
Al815       O820   1.783       .  S
O816        C823   1.265       .  A
O816       Al824   1.922       .  S
O817        C826   1.258       .  A
O817       Al824   1.908       .  S
O818       Al824   1.876       .  S
O819        C826   1.254       .  A
O820       Al824   1.789       .  S
O821        C822   1.269       .  A
C822       C1026   1.485       .  S
C823        C930   1.467       .  S
C826       C1013   1.480       .  S
C827        C946   1.473       .  S
C827        O828   1.263       .  A
N829        C917   1.437       .  S
N829        C833   1.352       .  A
N829        C830   1.351       .  A
C830        C949   1.469       .  S
C830        C831   1.383       .  A
C831        C832   1.372       .  A
C831        H834   1.082       .  S
C832        C833   1.379       .  A
C832        H835   1.082       .  S
C833        C898   1.467       .  S
N836        C866   1.442       .  S
N836        C840   1.354       .  A
N836        C837   1.355       .  A
C837        C933   1.473       .  S
C837        C838   1.383       .  A
C838        C839   1.372       .  A
C838        H841   1.082       .  S
C839        C840   1.379       .  A
C839        H842   1.082       .  S
C840        C885   1.470       .  S
O843        C858   1.261       .  A
C844        C901   1.479       .  S
C844        O854   1.262       .  A
C844        O845   1.268       .  A
O845      Al1903   1.915       .  S
O846        C848   1.255       .  A
O846       Al847   1.888       .  S
Al847      O1901   1.915   1_455  S
Al847      O1383   1.898   1_465  S
Al847       O856   1.780       .  S
C848        C914   1.480       .  S
C848        O861   1.260       .  A
O849        C859   1.260       .  A
O849       Al851   1.903       .  S
O850       C1919   1.261       .  A
Al851       O861   1.912       .  S
Al851       O856   1.785       .  S
O852       C1915   1.265       .  A
O852       Al860   1.917       .  S
O853        C862   1.258       .  A
O854       Al860   1.886       .  S
O855        C862   1.255       .  A
O855      Al1375   1.898       .  S
O856      Al1916   1.781   1_455  S
O857        C858   1.264       .  A
C858        C882   1.483       .  S
C859       C1042   1.479       .  S
C859       O1908   1.265   1_455  A
Al860      O1912   1.781       .  S
C862        C869   1.472       .  S
C863        C994   1.468       .  S
C863       O1906   1.261   1_455  A
C863        O864   1.266       .  A
C865        C866   1.402       .  A
C865        C870   1.403       .  A
C865        H872   1.081       .  S
C866        C867   1.414       .  A
C867        C868   1.405       .  A
C867        C874   1.504       .  S
C868        C869   1.399       .  A
C868        H873   1.080       .  S
C869        C870   1.410       .  A
C870        C871   1.505       .  S
C871        H875   1.111       .  S
C871        H876   1.110       .  S
C874        H878   1.107       .  S
C874        H879   1.109       .  S
C874        H880   1.111       .  S
C881        C882   1.408       .  A
C881        C886   1.400       .  A
C881        H888   1.084       .  S
C882        C883   1.419       .  A
C883        C884   1.401       .  A
C883        C890   1.508       .  S
C884        C885   1.399       .  A
C884        H889   1.084       .  S
C885        C886   1.406       .  A
C886        C887   1.506       .  S
C887        H891   1.111       .  S
C887        H892   1.110       .  S
C887        H893   1.110       .  S
C890        H894   1.110       .  S
C890        H895   1.109       .  S
C890        H896   1.111       .  S
C897        C898   1.398       .  A
C897        C902   1.402       .  A
C897        H904   1.083       .  S
C898        C899   1.407       .  A
C899        C900   1.397       .  A
C899        C906   1.507       .  S
C900        C901   1.405       .  A
C900        H905   1.082       .  S
C901        C902   1.419       .  A
C902        C903   1.508       .  S
C903        H907   1.111       .  S
C903       H1964   1.108       .  S
C903        H909   1.110       .  S
C906        H910   1.110       .  S
C906        H911   1.108       .  S
C906        H912   1.111       .  S
H908       C1959   1.108       .  S
C913        C914   1.403       .  A
C913        C918   1.402       .  A
C913        H920   1.084       .  S
C914        C915   1.418       .  A
C915        C916   1.404       .  A
C915        C922   1.508       .  S
C916        C917   1.399       .  A
C916        H921   1.081       .  S
C917        C918   1.412       .  A
C918        C919   1.504       .  S
C919        H923   1.110       .  S
C919        H924   1.108       .  S
C919        H925   1.110       .  S
C922        H926   1.110       .  S
C922        H927   1.109       .  S
C922        H928   1.111       .  S
C929        C930   1.400       .  A
C929        C934   1.404       .  A
C929        H936   1.084       .  S
C930        C931   1.410       .  A
C931        C932   1.399       .  A
C931        C938   1.505       .  S
C932        C933   1.401       .  A
C932        H937   1.084       .  S
C933        C934   1.414       .  A
C934        C935   1.506       .  S
C935        H939   1.111       .  S
C935        H940   1.106       .  S
C935        H941   1.110       .  S
C938        H942   1.110       .  S
C938        H943   1.109       .  S
C938        H944   1.111       .  S
C945        C946   1.401       .  A
C945        C950   1.393       .  A
C945        H952   1.081       .  S
C946        C947   1.412       .  A
C947        C948   1.407       .  A
C947        C954   1.507       .  S
C948        C949   1.405       .  A
C948        H953   1.082       .  S
C949        C950   1.409       .  A
C950        C951   1.508       .  S
C951        H955   1.110       .  S
C951        H956   1.111       .  S
C951        H957   1.108       .  S
C954        H958   1.110       .  S
C954        H959   1.110       .  S
C954        H960   1.111       .  S
C961        C962   1.407       .  A
C961        C966   1.400       .  A
C961        H968   1.084       .  S
C962        C963   1.415       .  A
C963        C964   1.402       .  A
C963        C970   1.507   1_556  S
C964        C965   1.400       .  A
C964        H969   1.082   1_556  S
C965        C966   1.408       .  A
C966        C967   1.506       .  S
C967        H971   1.110       .  S
C967        H972   1.109       .  S
C967        H973   1.109       .  S
C970        H974   1.111   1_554  S
C970        H975   1.109       .  S
C977        C978   1.399       .  A
C977        C982   1.402       .  A
C977        H984   1.084       .  S
C978        C979   1.413       .  A
C979        C980   1.407       .  A
C979        C986   1.507   1_556  S
C980        C981   1.403       .  A
C980        H985   1.082   1_556  S
C981       N1856   1.441       .  S
C981        C982   1.411       .  A
C982        C983   1.502       .  S
C983        H987   1.111       .  S
C983        H988   1.106       .  S
C983        H989   1.109       .  S
C986        H990   1.110       .  S
C986        H991   1.111   1_554  S
C986        H992   1.111       .  S
C993        C994   1.400       .  A
C993        C998   1.400       .  A
C993       H1000   1.084       .  S
C994       C2051   1.412       .  A
C995       C2050   1.412       .  A
C995        C996   1.403       .  A
C995       C1002   1.506       .  S
C996       C2053   1.402       .  A
C996       H1001   1.084       .  S
C997       C2052   1.402       .  A
C997        C998   1.411       .  A
C998        C999   1.504       .  S
C999       H1003   1.111       .  S
C999       H1004   1.110       .  S
C1002      H1006   1.110       .  S
C1002      H1007   1.108       .  S
C1002      H1008   1.111       .  S
C1009      C1010   1.397   1_554  A
C1009      C1014   1.403       .  A
C1009      H1016   1.083       .  S
C1010      C1011   1.408       .  A
C1011      C1012   1.405       .  A
C1011      C1018   1.504       .  S
C1012      C1013   1.405       .  A
C1012      H1017   1.084       .  S
C1013      C1014   1.417   1_556  A
C1014      C1015   1.507       .  S
C1015      H1019   1.111       .  S
C1015      H1020   1.110       .  S
C1015      H1021   1.108       .  S
C1018      H1023   1.107   1_455  S
C1018      H1024   1.111       .  S
C1025      C1026   1.407       .  A
C1025      C1030   1.400   1_556  A
C1025      H1032   1.084   1_556  S
C1026      C1027   1.422       .  A
C1027      C1028   1.403       .  A
C1027      C1034   1.510       .  S
C1028      C1029   1.398       .  A
C1028      H1033   1.081       .  S
C1029      C1030   1.407   1_556  A
C1030      C2087   1.507       .  S
C1031      C2086   1.507       .  S
C1031      H1035   1.111       .  S
C1031      H1036   1.109       .  S
C1031      H1037   1.110       .  S
C1034      H1038   1.109       .  S
C1034      H1039   1.110       .  S
C1034      H1040   1.111       .  S
C1041      C2098   1.403       .  A
C1041      C1046   1.395       .  A
C1041      H1048   1.085       .  S
C1042      C2097   1.403   1_455  A
C1042      C1043   1.416       .  A
C1043      C1044   1.409       .  A
C1043      C1050   1.507       .  S
C1044      C1045   1.404   1_455  A
C1044      H1049   1.083       .  S
C1045      C2102   1.411       .  A
C1046      C2101   1.411       .  A
C1046      C1047   1.508       .  S
C1047      H1051   1.110       .  S
C1047      H1052   1.111       .  S
C1047      H1053   1.109       .  S
C1050      H1054   1.109       .  S
C1050      H1055   1.110       .  S
C1050      H1056   1.111       .  S
N1057      C1274   1.437       .  S
N1057      C1322   1.353       .  A
C1058      N1321   1.351       .  A
C1058      C1309   1.472       .  S
C1059      C1060   1.374       .  A
C1059      H1062   1.082       .  S
C1060      C1325   1.380       .  A
C1060      H1063   1.082       .  S
C1061      C1293   1.472       .  S
C1061      C1324   1.379       .  A
N1064      C1068   1.358       .  A
N1064      C1329   1.355       .  A
C1065      N1328   1.356       .  A
C1065      C1261   1.477   1_556  S
C1065      C1066   1.385       .  A
C1066      C1331   1.371       .  A
C1066      H1069   1.082       .  S
C1067      C1330   1.369       .  A
C1067      C1068   1.382       .  A
C1067      H1070   1.082       .  S
C1068      C1229   1.475       .  S
O1071      C1086   1.261       .  A
O1071     Al1079   1.885       .  S
C1072      C1226   1.460       .  S
C1072      O1082   1.259       .  A
C1072      O1073   1.266       .  A
O1073     Al1075   1.917       .  S
O1074      C1076   1.257       .  A
O1074     Al1075   1.903       .  S
Al1075     O1083   1.894       .  S
Al1075     O1085   1.915       .  S
Al1075     O1084   1.782       .  S
C1076      C1242   1.485       .  S
C1076      O1089   1.258       .  A
O1077      C1087   1.261       .  A
O1077     Al1079   1.902       .  S
O1078      C1091   1.261       .  A
O1078     Al1088   1.899       .  S
Al1079     O1092   1.912       .  S
Al1079     O1089   1.901       .  S
Al1079     O1084   1.781       .  S
O1080      C1087   1.265       .  A
O1080     Al1088   1.924       .  S
O1081      C1090   1.260       .  A
O1081     Al1088   1.918       .  S
O1082     Al1088   1.882       .  S
O1083      C1090   1.255       .  A
O1084     Al1088   1.787       .  S
O1085      C1086   1.267       .  A
C1086      C1290   1.484       .  S
C1087      C1194   1.469       .  S
C1090      C1277   1.482       .  S
C1091      C1210   1.473       .  S
C1091      O1092   1.265       .  A
N1093      C1181   1.436       .  S
N1093      C1097   1.351       .  A
N1093      C1094   1.350       .  A
C1094      C1213   1.469       .  S
C1094      C1095   1.384       .  A
C1095      C1096   1.373       .  A
C1095      H1098   1.082       .  S
C1096      C1097   1.379       .  A
C1096      H1099   1.082       .  S
C1097      C1162   1.468       .  S
N1100      C1130   1.440       .  S
N1100      C1104   1.355       .  A
N1100      C1101   1.355       .  A
C1101      C1197   1.475       .  S
C1101      C1102   1.382       .  A
C1102      C1103   1.374       .  A
C1102      H1105   1.082       .  S
C1103      C1104   1.380       .  A
C1103      H1106   1.082       .  S
C1104      C1149   1.477       .  S
O1107      C1122   1.263   1_565  A
O1107     Al1643   1.888       .  S
C1108      C1165   1.481       .  S
C1108      O1118   1.260       .  A
C1108      O1109   1.266       .  A
O1110      C1112   1.254       .  A
O1110     Al1111   1.891       .  S
Al1111     O1649   1.919       .  S
Al1111     O1120   1.784       .  S
C1112      C1178   1.480       .  S
C1112      O1125   1.258       .  A
O1113      C1123   1.262       .  A
O1113     Al1115   1.906       .  S
O1114     Al1652   1.903   1_545  S
Al1115     O1635   1.888       .  S
Al1115     O1656   1.914       .  S
Al1115     O1125   1.906       .  S
Al1115     O1120   1.787       .  S
O1116     Al1124   1.911       .  S
O1117      C1126   1.257       .  A
O1117     Al1652   1.903   1_545  S
O1118     Al1124   1.885       .  S
O1119      C1126   1.255       .  A
O1121      C1122   1.266   1_565  A
O1121     Al1639   1.919       .  S
C1122      C1146   1.483       .  S
C1123      C1306   1.477       .  S
Al1124     O1642   1.903       .  S
Al1124     O1645   1.903       .  S
C1126      C1133   1.473       .  S
C1127      C1258   1.470       .  S
C1127      O1128   1.263   1_545  A
O1128     Al1643   1.914       .  S
C1129      C1130   1.400       .  A
C1129      C1134   1.403       .  A
C1129      H1136   1.081       .  S
C1130      C1131   1.413       .  A
C1131      C1132   1.405       .  A
C1131      C1138   1.504       .  S
C1132      C1133   1.400       .  A
C1132      H1137   1.084       .  S
C1133      C1134   1.413       .  A
C1134      C1135   1.505       .  S
C1135      H1139   1.111       .  S
C1135      H1140   1.110       .  S
C1135      H1669   1.108   1_545  S
C1138      H1142   1.107       .  S
C1138      H1143   1.108       .  S
C1138      H1144   1.111       .  S
H1141      C1663   1.108       .  S
C1145      C1146   1.406       .  A
C1145      C1150   1.401       .  A
C1145      H1152   1.084       .  S
C1146      C1147   1.418       .  A
C1147      C1148   1.404       .  A
C1147      C1154   1.508       .  S
C1148      C1149   1.401       .  A
C1148      H1153   1.084       .  S
C1149      C1150   1.409       .  A
C1150      C1151   1.506       .  S
C1151      H1155   1.111       .  S
C1151      H1156   1.108       .  S
C1151      H1157   1.110       .  S
C1154      H1158   1.111   1_545  S
C1154      H1159   1.109       .  S
C1154      H1160   1.111       .  S
C1161      C1162   1.398       .  A
C1161      C1166   1.402       .  A
C1161      H1168   1.083       .  S
C1162      C1163   1.407       .  A
C1163      C1164   1.398       .  A
C1163      C1170   1.507       .  S
C1164      C1165   1.406       .  A
C1164      H1169   1.082       .  S
C1165      C1166   1.420       .  A
C1166      C1167   1.508       .  S
C1167      H1171   1.111       .  S
C1167      H1173   1.110       .  S
C1170      H1174   1.110       .  S
C1170      H1175   1.109       .  S
C1170      H1176   1.111       .  S
C1177      C1178   1.404       .  A
C1177      C1182   1.402       .  A
C1177      H1184   1.084       .  S
C1178      C1179   1.417       .  A
C1179      C1180   1.404       .  A
C1179      C1186   1.507       .  S
C1180      C1181   1.399       .  A
C1180      H1185   1.082       .  S
C1181      C1182   1.411       .  A
C1182      C1183   1.505       .  S
C1183      H1187   1.110       .  S
C1183      H1188   1.108       .  S
C1183      H1189   1.110       .  S
C1186      H1190   1.110       .  S
C1186      H1191   1.109       .  S
C1186      H1192   1.111       .  S
C1193      C1194   1.399       .  A
C1193      C1198   1.404       .  A
C1193      H1200   1.084       .  S
C1194      C1195   1.410       .  A
C1195      C1196   1.403       .  A
C1195      C1202   1.506       .  S
C1196      C1197   1.402       .  A
C1196      H1201   1.083       .  S
C1197      C1198   1.415       .  A
C1198      C1199   1.506       .  S
C1199      H1203   1.111       .  S
C1199      H1204   1.105       .  S
C1199      H1205   1.110       .  S
C1202      H1206   1.111       .  S
C1202      H1207   1.109       .  S
C1202      H1208   1.111       .  S
C1209      C1210   1.402       .  A
C1209      C1214   1.393       .  A
C1209      H1216   1.082       .  S
C1210      C1211   1.413       .  A
C1211      C1212   1.406       .  A
C1211      C1218   1.507       .  S
C1212      C1213   1.404       .  A
C1212      H1217   1.083       .  S
C1213      C1214   1.409       .  A
C1214      C1215   1.508       .  S
C1215      H1219   1.110       .  S
C1215      H1220   1.111       .  S
C1215      H1221   1.108       .  S
C1218      H1222   1.110       .  S
C1218      H1223   1.110       .  S
C1218      H1224   1.111       .  S
C1225      C1226   1.397       .  A
C1225      C1230   1.398       .  A
C1225      H1232   1.085       .  S
C1226      C1227   1.408       .  A
C1227      C1228   1.402       .  A
C1227      C1234   1.506       .  S
C1228      C1229   1.404       .  A
C1228      H1233   1.083       .  S
C1229      C1230   1.416       .  A
C1230      C1231   1.510       .  S
C1231      H1235   1.111       .  S
C1231      H1236   1.109       .  S
C1231      H1237   1.107       .  S
C1234      H1238   1.111       .  S
C1234      H1239   1.107       .  S
C1234      H1504   1.111       .  S
H1240      C1498   1.111       .  S
C1241      C1242   1.404       .  A
C1241      C1246   1.404   1_655  A
C1241      H1248   1.084       .  S
C1242      C1243   1.417       .  A
C1243      C1244   1.407       .  A
C1243      C1250   1.507       .  S
C1244      C1245   1.403   1_655  A
C1244      H1249   1.083       .  S
C1245      C1246   1.413       .  A
C1246      C1247   1.505       .  S
C1247      H1251   1.111       .  S
C1247      H1252   1.106       .  S
C1247      H1253   1.103       .  S
C1250      H1254   1.109       .  S
C1250      H1255   1.111       .  S
C1250      H1256   1.111       .  S
C1257      C1258   1.400       .  A
C1257      C1262   1.399       .  A
C1257      H1264   1.085   1_545  S
C1259      C1260   1.406       .  A
C1259      C1266   1.506   1_455  S
C1260      H1265   1.084       .  S
C1261      C1262   1.416       .  A
C1262      C1263   1.511   1_554  S
C1263      H1267   1.111       .  S
C1263      H1268   1.106       .  S
C1263      H1533   1.106       .  S
C1266      H1270   1.110   1_655  S
C1266      H1271   1.110       .  S
C1266      H1272   1.111       .  S
H1269      C1527   1.107       .  S
C1273      C1274   1.398       .  A
C1273      C1278   1.404       .  A
C1273      H1280   1.083       .  S
C1274      C1275   1.409       .  A
C1275      C1276   1.406       .  A
C1275      C1282   1.505       .  S
C1276      C1277   1.405       .  A
C1276      H1281   1.084       .  S
C1277      C1278   1.418       .  A
C1278      C1279   1.507       .  S
C1279      H1283   1.111       .  S
C1279      H1284   1.110       .  S
C1279      H1285   1.108       .  S
C1282      H1550   1.110       .  S
C1282      H1287   1.107       .  S
C1282      H1288   1.111       .  S
H1286      C1546   1.110       .  S
C1289      C1290   1.407       .  A
C1289      C1294   1.400       .  A
C1289      H1296   1.084       .  S
C1290      C1291   1.420       .  A
C1291      C1292   1.403       .  A
C1291      C1298   1.509       .  S
C1292      C1293   1.399       .  A
C1292      H1297   1.081       .  S
C1293      C1294   1.407       .  A
C1295      H1299   1.111       .  S
C1295      H1300   1.110       .  S
C1295      H1301   1.109       .  S
C1298      H1302   1.109       .  S
C1298      H1303   1.110       .  S
C1298      H1304   1.111       .  S
C1305      C1310   1.395       .  A
C1305      H1312   1.085       .  S
C1306      C1307   1.415       .  A
C1307      C1308   1.408       .  A
C1307      C1314   1.507       .  S
C1308      C1309   1.404       .  A
C1308      H1313   1.084       .  S
C1310      C1311   1.508   1_554  S
C1311      H1315   1.110       .  S
C1311      H1316   1.111   1_556  S
C1311      H1317   1.109       .  S
C1314      H1318   1.110       .  S
C1314      H1319   1.110       .  S
C1314      H1320   1.111       .  S
N1321      C1538   1.435   1_554  S
C1322      C1573   1.475       .  S
C1323      C1324   1.372       .  A
C1323      H1326   1.083       .  S
C1324      H1327   1.082       .  S
C1325      C1557   1.473   1_554  S
N1328      C1332   1.354       .  A
C1329      C1525   1.470       .  S
C1329      C1330   1.380       .  A
C1330      H1333   1.082       .  S
C1331      C1332   1.378       .  A
C1331      H1334   1.082       .  S
C1332      C1493   1.473       .  S
O1335      C1350   1.262       .  A
O1335     Al1343   1.882       .  S
C1336      C1490   1.480       .  S
C1336      O1346   1.260       .  A
C1336      O1337   1.267       .  A
O1337     Al1339   1.921       .  S
O1338      C1340   1.255       .  A
O1338     Al1339   1.899       .  S
Al1339     O1347   1.889       .  S
Al1339     O1349   1.919       .  S
Al1339     O1348   1.784       .  S
C1340      C1506   1.471       .  S
C1340      O1353   1.255       .  A
O1341      C1351   1.261       .  A
O1341     Al1343   1.897       .  S
O1342      C1355   1.259       .  A
O1342     Al1352   1.900       .  S
Al1343     O1356   1.911       .  S
Al1343     O1353   1.898       .  S
Al1343     O1348   1.783       .  S
O1344      C1351   1.265       .  A
O1344     Al1352   1.922       .  S
O1345      C1354   1.258       .  A
O1345     Al1352   1.908       .  S
O1346     Al1352   1.876       .  S
O1347      C1354   1.254       .  A
O1348     Al1352   1.789       .  S
O1349      C1350   1.269       .  A
C1350      C1554   1.485       .  S
C1351      C1458   1.467       .  S
C1354      C1541   1.480       .  S
C1355      C1474   1.473       .  S
C1355      O1356   1.263       .  A
N1357      C1445   1.437       .  S
N1357      C1361   1.352       .  A
N1357      C1358   1.351       .  A
C1358      C1477   1.469       .  S
C1358      C1359   1.383       .  A
C1359      C1360   1.372       .  A
C1359      H1362   1.082       .  S
C1360      C1361   1.379       .  A
C1360      H1363   1.082       .  S
C1361      C1426   1.467       .  S
N1364      C1394   1.442       .  S
N1364      C1368   1.354       .  A
N1364      C1365   1.355       .  A
C1365      C1461   1.473       .  S
C1365      C1366   1.383       .  A
C1366      C1367   1.372       .  A
C1366      H1369   1.082       .  S
C1367      C1368   1.379       .  A
C1367      H1370   1.082       .  S
C1368      C1413   1.470       .  S
O1371      C1386   1.261       .  A
O1371     Al1907   1.881   1_545  S
C1372      C1429   1.479       .  S
C1372      O1382   1.262       .  A
C1372      O1373   1.268       .  A
O1374      C1376   1.255       .  A
O1374     Al1375   1.888       .  S
Al1375     O1913   1.914       .  S
Al1375     O1384   1.780       .  S
C1376      C1442   1.480       .  S
C1376      O1389   1.260       .  A
O1377      C1387   1.260       .  A
O1377     Al1379   1.903       .  S
O1378     Al1916   1.894   1_545  S
Al1379     O1899   1.881       .  S
Al1379     O1920   1.925       .  S
Al1379     O1389   1.912       .  S
Al1379     O1384   1.785       .  S
O1380     Al1388   1.917       .  S
O1381      C1390   1.258       .  A
O1381     Al1916   1.911   1_545  S
O1382     Al1388   1.886       .  S
O1383      C1390   1.255       .  A
O1385      C1386   1.264   1_565  A
O1385     Al1903   1.914       .  S
C1386      C1410   1.483       .  S
C1387      C1570   1.479       .  S
Al1388     O1906   1.894       .  S
Al1388     O1909   1.911       .  S
C1390      C1397   1.472       .  S
C1391      C1522   1.468       .  S
C1391      O1392   1.266   1_545  A
O1392     Al1907   1.925       .  S
C1393      C1394   1.402       .  A
C1393      C1398   1.403       .  A
C1393      H1400   1.081       .  S
C1394      C1395   1.414       .  A
C1395      C1396   1.405       .  A
C1395      C1402   1.504       .  S
C1396      C1397   1.399       .  A
C1396      H1401   1.080       .  S
C1397      C1398   1.410       .  A
C1398      C1399   1.505       .  S
C1399      H1403   1.111       .  S
C1399      H1404   1.110       .  S
C1399      H1933   1.109   1_545  S
C1402      H1406   1.107       .  S
C1402      H1407   1.109       .  S
C1402      H1408   1.111       .  S
H1405      C1927   1.109       .  S
C1409      C1410   1.408       .  A
C1409      C1414   1.400       .  A
C1409      H1416   1.084       .  S
C1410      C1411   1.419       .  A
C1411      C1412   1.401       .  A
C1411      C1418   1.508       .  S
C1412      C1413   1.399       .  A
C1412      H1417   1.084       .  S
C1413      C1414   1.406       .  A
C1414      C1415   1.506       .  S
C1415      H1419   1.111       .  S
C1415      H1420   1.110       .  S
C1415      H1421   1.110       .  S
C1418      H1422   1.110   1_545  S
C1418      H1423   1.109       .  S
C1418      H1424   1.111       .  S
C1425      C1426   1.398       .  A
C1425      C1430   1.402       .  A
C1425      H1432   1.083       .  S
C1426      C1427   1.407       .  A
C1427      C1428   1.397       .  A
C1427      C1434   1.507       .  S
C1428      C1429   1.405       .  A
C1428      H1433   1.082       .  S
C1429      C1430   1.419       .  A
C1430      C1431   1.508       .  S
C1431      H1435   1.111       .  S
C1431      H1437   1.110       .  S
C1434      H1438   1.110       .  S
C1434      H1439   1.108       .  S
C1434      H1440   1.111       .  S
C1441      C1442   1.403       .  A
C1441      C1446   1.402       .  A
C1441      H1448   1.084       .  S
C1442      C1443   1.418       .  A
C1443      C1444   1.404       .  A
C1443      C1450   1.508       .  S
C1444      C1445   1.399       .  A
C1444      H1449   1.081       .  S
C1445      C1446   1.412       .  A
C1446      C1447   1.504       .  S
C1447      H1451   1.110       .  S
C1447      H1452   1.108       .  S
C1447      H1453   1.110       .  S
C1450      H1454   1.110       .  S
C1450      H1455   1.109       .  S
C1450      H1456   1.111       .  S
C1457      C1458   1.400       .  A
C1457      C1462   1.404       .  A
C1457      H1464   1.084       .  S
C1458      C1459   1.410       .  A
C1459      C1460   1.399       .  A
C1459      C1466   1.505       .  S
C1460      C1461   1.401       .  A
C1460      H1465   1.084       .  S
C1461      C1462   1.414       .  A
C1462      C1463   1.506       .  S
C1463      H1467   1.111       .  S
C1463      H1468   1.106       .  S
C1463      H1469   1.110       .  S
C1466      H1470   1.110       .  S
C1466      H1471   1.109       .  S
C1466      H1472   1.111       .  S
C1473      C1474   1.401       .  A
C1473      C1478   1.393       .  A
C1473      H1480   1.080       .  S
C1474      C1475   1.412       .  A
C1475      C1476   1.407       .  A
C1475      C1482   1.507       .  S
C1476      C1477   1.405       .  A
C1476      H1481   1.082       .  S
C1477      C1478   1.409       .  A
C1478      C1479   1.508       .  S
C1479      H1483   1.110       .  S
C1479      H1484   1.111       .  S
C1479      H1485   1.108       .  S
C1482      H1486   1.110       .  S
C1482      H1487   1.110       .  S
C1482      H1488   1.111       .  S
C1489      C1490   1.407       .  A
C1489      C1494   1.400       .  A
C1489      H1496   1.084       .  S
C1490      C1491   1.415       .  A
C1491      C1492   1.402       .  A
C1491      C1498   1.507   1_556  S
C1492      C1493   1.400       .  A
C1492      H1497   1.082   1_556  S
C1493      C1494   1.408       .  A
C1494      C1495   1.506       .  S
C1495      H1499   1.110       .  S
C1495      H1500   1.109       .  S
C1495      H1501   1.109       .  S
C1498      H1502   1.111   1_554  S
C1498      H1503   1.109       .  S
C1505      C1506   1.399       .  A
C1505      C1510   1.402       .  A
C1505      H1512   1.084       .  S
C1506      C1507   1.413       .  A
C1507      C1508   1.407       .  A
C1507      C1514   1.507   1_556  S
C1508      C1509   1.403   1_655  A
C1508      H1513   1.082   1_656  S
C1509      C1510   1.411   1_455  A
C1510      C1511   1.502       .  S
C1511      H1515   1.110       .  S
C1511      H1516   1.106       .  S
C1511      H1517   1.109   1_655  S
C1514      H1518   1.110       .  S
C1514      H1519   1.111   1_554  S
C1514      H1520   1.111       .  S
C1521      C1522   1.400       .  A
C1521      C1526   1.400       .  A
C1521      H1528   1.084       .  S
C1523      C1524   1.403       .  A
C1523      C1530   1.506   1_455  S
C1524      H1529   1.084       .  S
C1525      C1526   1.411       .  A
C1526      C1527   1.504       .  S
C1527      H1531   1.111       .  S
C1527      H1532   1.110       .  S
C1530      H1534   1.110   1_655  S
C1530      H1535   1.108       .  S
C1530      H1536   1.111       .  S
C1537      C1538   1.397   1_554  A
C1537      C1542   1.403       .  A
C1537      H1544   1.083       .  S
C1538      C1539   1.408       .  A
C1539      C1540   1.405       .  A
C1539      C1546   1.504       .  S
C1540      C1541   1.405       .  A
C1540      H1545   1.084       .  S
C1541      C1542   1.417   1_556  A
C1542      C1543   1.507       .  S
C1543      H1547   1.111       .  S
C1543      H1548   1.110       .  S
C1543      H1549   1.108       .  S
C1546      H1551   1.107       .  S
C1546      H1552   1.111       .  S
C1553      C1554   1.407       .  A
C1553      C1558   1.400   1_556  A
C1553      H1560   1.084   1_556  S
C1554      C1555   1.422       .  A
C1555      C1556   1.403       .  A
C1555      C1562   1.510       .  S
C1556      C1557   1.398       .  A
C1556      H1561   1.081       .  S
C1557      C1558   1.407   1_556  A
C1559      H1563   1.111       .  S
C1559      H1564   1.109       .  S
C1559      H1565   1.110       .  S
C1562      H1566   1.109       .  S
C1562      H1567   1.110       .  S
C1562      H1568   1.111       .  S
C1569      C1574   1.395       .  A
C1569      H1576   1.085       .  S
C1570      C1571   1.416       .  A
C1571      C1572   1.409       .  A
C1571      C1578   1.507       .  S
C1572      C1573   1.404       .  A
C1572      H1577   1.083       .  S
C1574      C1575   1.508       .  S
C1575      H1579   1.110       .  S
C1575      H1580   1.111       .  S
C1575      H1581   1.109       .  S
C1578      H1582   1.109       .  S
C1578      H1583   1.110       .  S
C1578      H1584   1.111       .  S
N1585      C1802   1.437       .  S
N1585      C1850   1.353       .  A
C1586      N1849   1.351       .  A
C1586      C1837   1.472       .  S
C1587      C1588   1.374       .  A
C1587      H1590   1.082       .  S
C1588      C1853   1.380       .  A
C1588      H1591   1.082       .  S
C1589      C1821   1.472       .  S
C1589      C1852   1.379       .  A
N1592      C1596   1.358       .  A
N1592      C1857   1.355       .  A
C1593      N1856   1.356       .  A
C1593      C1789   1.477   1_556  S
C1593      C1594   1.385       .  A
C1594      C1859   1.371       .  A
C1594      H1597   1.082       .  S
C1595      C1858   1.369       .  A
C1595      C1596   1.382       .  A
C1595      H1598   1.082       .  S
C1596      C1757   1.475       .  S
O1599      C1614   1.261       .  A
O1599     Al1607   1.885       .  S
C1600      C1754   1.460       .  S
C1600      O1610   1.259       .  A
C1600      O1601   1.266       .  A
O1601     Al1603   1.917       .  S
O1602      C1604   1.257       .  A
O1602     Al1603   1.903       .  S
Al1603     O1611   1.894       .  S
Al1603     O1613   1.915       .  S
Al1603     O1612   1.782       .  S
C1604      C1770   1.485       .  S
C1604      O1617   1.258       .  A
O1605      C1615   1.261       .  A
O1605     Al1607   1.902       .  S
O1606      C1619   1.261       .  A
O1606     Al1616   1.899       .  S
Al1607     O1620   1.912       .  S
Al1607     O1617   1.901       .  S
Al1607     O1612   1.781       .  S
O1608      C1615   1.265       .  A
O1608     Al1616   1.924       .  S
O1609      C1618   1.260       .  A
O1609     Al1616   1.918       .  S
O1610     Al1616   1.882       .  S
O1611      C1618   1.255       .  A
O1612     Al1616   1.787       .  S
O1613      C1614   1.267       .  A
C1614      C1818   1.484       .  S
C1615      C1722   1.469       .  S
C1618      C1805   1.482       .  S
C1619      C1738   1.473       .  S
C1619      O1620   1.265       .  A
N1621      C1709   1.436       .  S
N1621      C1625   1.351       .  A
N1621      C1622   1.350       .  A
C1622      C1741   1.469       .  S
C1622      C1623   1.384       .  A
C1623      C1624   1.373       .  A
C1623      H1626   1.082       .  S
C1624      C1625   1.379       .  A
C1624      H1627   1.082       .  S
C1625      C1690   1.468       .  S
N1628      C1658   1.440       .  S
N1628      C1632   1.355       .  A
N1628      C1629   1.355       .  A
C1629      C1725   1.475       .  S
C1629      C1630   1.382       .  A
C1630      C1631   1.374       .  A
C1630      H1633   1.082       .  S
C1631      C1632   1.380       .  A
C1631      H1634   1.082       .  S
C1632      C1677   1.477       .  S
O1635      C1650   1.263       .  A
C1636      C1693   1.481       .  S
C1636      O1646   1.260       .  A
C1636      O1637   1.266       .  A
O1638      C1640   1.254       .  A
O1638     Al1639   1.891       .  S
Al1639     O1648   1.784       .  S
C1640      C1706   1.479       .  S
C1640      O1653   1.258       .  A
O1641      C1651   1.262       .  A
O1641     Al1643   1.906       .  S
Al1643     O1653   1.906       .  S
Al1643     O1648   1.787       .  S
O1644     Al1652   1.911       .  S
O1645      C1654   1.257       .  A
O1646     Al1652   1.885       .  S
O1647      C1654   1.255       .  A
O1649      C1650   1.266       .  A
C1650      C1674   1.483       .  S
C1651      C1834   1.477       .  S
C1654      C1661   1.473       .  S
C1655      C1786   1.470       .  S
C1655      O1656   1.263       .  A
C1657      C1658   1.400       .  A
C1657      C1662   1.403       .  A
C1657      H1664   1.081       .  S
C1658      C1659   1.413       .  A
C1659      C1660   1.405       .  A
C1659      C1666   1.504       .  S
C1660      C1661   1.400       .  A
C1660      H1665   1.084       .  S
C1661      C1662   1.413       .  A
C1662      C1663   1.505       .  S
C1663      H1667   1.111       .  S
C1663      H1668   1.110       .  S
C1666      H1670   1.107       .  S
C1666      H1671   1.108       .  S
C1666      H1672   1.111       .  S
C1673      C1674   1.406       .  A
C1673      C1678   1.401       .  A
C1673      H1680   1.084       .  S
C1674      C1675   1.418       .  A
C1675      C1676   1.404       .  A
C1675      C1682   1.508       .  S
C1676      C1677   1.401       .  A
C1676      H1681   1.084       .  S
C1677      C1678   1.409       .  A
C1678      C1679   1.506       .  S
C1679      H1683   1.111       .  S
C1679      H1684   1.108       .  S
C1679      H1685   1.110       .  S
C1682      H1686   1.111       .  S
C1682      H1687   1.109       .  S
C1682      H1688   1.111       .  S
C1689      C1690   1.398       .  A
C1689      C1694   1.402       .  A
C1689      H1696   1.083       .  S
C1690      C1691   1.407       .  A
C1691      C1692   1.398       .  A
C1691      C1698   1.507       .  S
C1692      C1693   1.406       .  A
C1692      H1697   1.082       .  S
C1693      C1694   1.420       .  A
C1694      C1695   1.508       .  S
C1695      H1699   1.111       .  S
C1695      H1701   1.110       .  S
C1698      H1702   1.110       .  S
C1698      H1703   1.109       .  S
C1698      H1704   1.111       .  S
C1705      C1706   1.404       .  A
C1705      C1710   1.402       .  A
C1705      H1712   1.084       .  S
C1706      C1707   1.417       .  A
C1707      C1708   1.404       .  A
C1707      C1714   1.507       .  S
C1708      C1709   1.399       .  A
C1708      H1713   1.082       .  S
C1709      C1710   1.411       .  A
C1710      C1711   1.505       .  S
C1711      H1715   1.110       .  S
C1711      H1716   1.108       .  S
C1711      H1717   1.110       .  S
C1714      H1718   1.110       .  S
C1714      H1719   1.109       .  S
C1714      H1720   1.111       .  S
C1721      C1722   1.399       .  A
C1721      C1726   1.404       .  A
C1721      H1728   1.084       .  S
C1722      C1723   1.410       .  A
C1723      C1724   1.403       .  A
C1723      C1730   1.506       .  S
C1724      C1725   1.402       .  A
C1724      H1729   1.083       .  S
C1725      C1726   1.415       .  A
C1726      C1727   1.506       .  S
C1727      H1731   1.111       .  S
C1727      H1732   1.105       .  S
C1727      H1733   1.110       .  S
C1730      H1734   1.111       .  S
C1730      H1735   1.109       .  S
C1730      H1736   1.111       .  S
C1737      C1738   1.402       .  A
C1737      C1742   1.393       .  A
C1737      H1744   1.082       .  S
C1738      C1739   1.413       .  A
C1739      C1740   1.406       .  A
C1739      C1746   1.507       .  S
C1740      C1741   1.404       .  A
C1740      H1745   1.083       .  S
C1741      C1742   1.409       .  A
C1742      C1743   1.508       .  S
C1743      H1747   1.110       .  S
C1743      H1748   1.111       .  S
C1743      H1749   1.108       .  S
C1746      H1750   1.110       .  S
C1746      H1751   1.110       .  S
C1746      H1752   1.111       .  S
C1753      C1754   1.397       .  A
C1753      C1758   1.398       .  A
C1753      H1760   1.085       .  S
C1754      C1755   1.408       .  A
C1755      C1756   1.402       .  A
C1755      C1762   1.506       .  S
C1756      C1757   1.404       .  A
C1756      H1761   1.083       .  S
C1757      C1758   1.416       .  A
C1758      C1759   1.510       .  S
C1759      H1763   1.111       .  S
C1759      H1764   1.109       .  S
C1759      H1765   1.107       .  S
C1762      H1766   1.111       .  S
C1762      H1767   1.107       .  S
C1762      H2032   1.111       .  S
H1768      C2026   1.111       .  S
C1769      C1770   1.404       .  A
C1769      C1774   1.404   1_655  A
C1769      H1776   1.084       .  S
C1770      C1771   1.417       .  A
C1771      C1772   1.407       .  A
C1771      C1778   1.507       .  S
C1772      C1773   1.403   1_655  A
C1772      H1777   1.083       .  S
C1773      C1774   1.413       .  A
C1774      C1775   1.505       .  S
C1775      H1779   1.111       .  S
C1775      H1780   1.106       .  S
C1775      H1781   1.103       .  S
C1778      H1782   1.110       .  S
C1778      H1783   1.111       .  S
C1778      H1784   1.111       .  S
C1785      C1786   1.400       .  A
C1785      C1790   1.399       .  A
C1785      H1792   1.085       .  S
C1787      C1788   1.406       .  A
C1787      C1794   1.506   1_455  S
C1788      H1793   1.084       .  S
C1789      C1790   1.416       .  A
C1790      C1791   1.511   1_554  S
C1791      H1795   1.111       .  S
C1791      H1796   1.106       .  S
C1791      H2061   1.106       .  S
C1794      H1798   1.110   1_655  S
C1794      H1799   1.110       .  S
C1794      H1800   1.111       .  S
H1797      C2055   1.107       .  S
C1801      C1802   1.398       .  A
C1801      C1806   1.404       .  A
C1801      H1808   1.083       .  S
C1802      C1803   1.409       .  A
C1803      C1804   1.406       .  A
C1803      C1810   1.505       .  S
C1804      C1805   1.405       .  A
C1804      H1809   1.084       .  S
C1805      C1806   1.418       .  A
C1806      C1807   1.507       .  S
C1807      H1811   1.111       .  S
C1807      H1812   1.110       .  S
C1807      H1813   1.108       .  S
C1810      H2078   1.110       .  S
C1810      H1815   1.107       .  S
C1810      H1816   1.111       .  S
H1814      C2074   1.110       .  S
C1817      C1818   1.407       .  A
C1817      C1822   1.400       .  A
C1817      H1824   1.084       .  S
C1818      C1819   1.420       .  A
C1819      C1820   1.403       .  A
C1819      C1826   1.509       .  S
C1820      C1821   1.399       .  A
C1820      H1825   1.081       .  S
C1821      C1822   1.407       .  A
C1823      H1827   1.111       .  S
C1823      H1828   1.110       .  S
C1823      H1829   1.109       .  S
C1826      H1830   1.109       .  S
C1826      H1831   1.110       .  S
C1826      H1832   1.111       .  S
C1833      C1838   1.395       .  A
C1833      H1840   1.085       .  S
C1834      C1835   1.415       .  A
C1835      C1836   1.408       .  A
C1835      C1842   1.507       .  S
C1836      C1837   1.404       .  A
C1836      H1841   1.084       .  S
C1838      C1839   1.508   1_554  S
C1839      H1843   1.110       .  S
C1839      H1844   1.111   1_556  S
C1839      H1845   1.109       .  S
C1842      H1846   1.110       .  S
C1842      H1847   1.110       .  S
C1842      H1848   1.111       .  S
N1849      C2066   1.435   1_554  S
C1850      C2101   1.475       .  S
C1851      C1852   1.372       .  A
C1851      H1854   1.083       .  S
C1852      H1855   1.082       .  S
C1853      C2085   1.473   1_554  S
N1856      C1860   1.354       .  A
C1857      C2053   1.470       .  S
C1857      C1858   1.380       .  A
C1858      H1861   1.082       .  S
C1859      C1860   1.378       .  A
C1859      H1862   1.082       .  S
C1860      C2021   1.473       .  S
O1863      C1878   1.262       .  A
O1863     Al1871   1.882       .  S
C1864      C2018   1.480       .  S
C1864      O1874   1.260       .  A
C1864      O1865   1.267       .  A
O1865     Al1867   1.921       .  S
O1866      C1868   1.255       .  A
O1866     Al1867   1.899       .  S
Al1867     O1875   1.889       .  S
Al1867     O1877   1.919       .  S
Al1867     O1876   1.784       .  S
C1868      C2034   1.471       .  S
C1868      O1881   1.255       .  A
O1869      C1879   1.261       .  A
O1869     Al1871   1.897       .  S
O1870      C1883   1.259       .  A
O1870     Al1880   1.900       .  S
Al1871     O1884   1.911       .  S
Al1871     O1881   1.898       .  S
Al1871     O1876   1.783       .  S
O1872      C1879   1.265       .  A
O1872     Al1880   1.922       .  S
O1873      C1882   1.258       .  A
O1873     Al1880   1.908       .  S
O1874     Al1880   1.876       .  S
O1875      C1882   1.254       .  A
O1876     Al1880   1.789       .  S
O1877      C1878   1.269       .  A
C1878      C2082   1.485       .  S
C1879      C1986   1.467       .  S
C1882      C2069   1.480       .  S
C1883      C2002   1.473       .  S
C1883      O1884   1.263       .  A
N1885      C1973   1.437       .  S
N1885      C1889   1.352       .  A
N1885      C1886   1.351       .  A
C1886      C2005   1.469       .  S
C1886      C1887   1.383       .  A
C1887      C1888   1.372       .  A
C1887      H1890   1.082       .  S
C1888      C1889   1.379       .  A
C1888      H1891   1.082       .  S
C1889      C1954   1.467       .  S
N1892      C1922   1.442       .  S
N1892      C1896   1.354       .  A
N1892      C1893   1.355       .  A
C1893      C1989   1.473       .  S
C1893      C1894   1.383       .  A
C1894      C1895   1.372       .  A
C1894      H1897   1.082       .  S
C1895      C1896   1.379       .  A
C1895      H1898   1.082       .  S
C1896      C1941   1.470       .  S
O1899      C1914   1.261       .  A
C1900      C1957   1.479       .  S
C1900      O1910   1.262       .  A
C1900      O1901   1.268       .  A
O1902      C1904   1.255       .  A
O1902     Al1903   1.888       .  S
Al1903     O1912   1.780       .  S
C1904      C1970   1.480       .  S
C1904      O1917   1.260       .  A
O1905      C1915   1.260       .  A
O1905     Al1907   1.903       .  S
Al1907     O1917   1.912       .  S
Al1907     O1912   1.785       .  S
O1908     Al1916   1.917       .  S
O1909      C1918   1.258       .  A
O1910     Al1916   1.886       .  S
O1911      C1918   1.255       .  A
O1913      C1914   1.264       .  A
C1914      C1938   1.483       .  S
C1915      C2098   1.479       .  S
C1918      C1925   1.472       .  S
C1919      C2050   1.468       .  S
C1919      O1920   1.266       .  A
C1921      C1922   1.402       .  A
C1921      C1926   1.403       .  A
C1921      H1928   1.081       .  S
C1922      C1923   1.414       .  A
C1923      C1924   1.405       .  A
C1923      C1930   1.504       .  S
C1924      C1925   1.399       .  A
C1924      H1929   1.080       .  S
C1925      C1926   1.410       .  A
C1926      C1927   1.505       .  S
C1927      H1931   1.111       .  S
C1927      H1932   1.110       .  S
C1930      H1934   1.107       .  S
C1930      H1935   1.109       .  S
C1930      H1936   1.111       .  S
C1937      C1938   1.408       .  A
C1937      C1942   1.400       .  A
C1937      H1944   1.084       .  S
C1938      C1939   1.419       .  A
C1939      C1940   1.401       .  A
C1939      C1946   1.508       .  S
C1940      C1941   1.399       .  A
C1940      H1945   1.084       .  S
C1941      C1942   1.406       .  A
C1942      C1943   1.506       .  S
C1943      H1947   1.111       .  S
C1943      H1948   1.110       .  S
C1943      H1949   1.110       .  S
C1946      H1950   1.110       .  S
C1946      H1951   1.109       .  S
C1946      H1952   1.111       .  S
C1953      C1954   1.398       .  A
C1953      C1958   1.402       .  A
C1953      H1960   1.083       .  S
C1954      C1955   1.407       .  A
C1955      C1956   1.397       .  A
C1955      C1962   1.507       .  S
C1956      C1957   1.405       .  A
C1956      H1961   1.082       .  S
C1957      C1958   1.419       .  A
C1958      C1959   1.508       .  S
C1959      H1963   1.111       .  S
C1959      H1965   1.110       .  S
C1962      H1966   1.110       .  S
C1962      H1967   1.108       .  S
C1962      H1968   1.111       .  S
C1969      C1970   1.403       .  A
C1969      C1974   1.402       .  A
C1969      H1976   1.084       .  S
C1970      C1971   1.418       .  A
C1971      C1972   1.404       .  A
C1971      C1978   1.508       .  S
C1972      C1973   1.399       .  A
C1972      H1977   1.081       .  S
C1973      C1974   1.412       .  A
C1974      C1975   1.504       .  S
C1975      H1979   1.110       .  S
C1975      H1980   1.108       .  S
C1975      H1981   1.110       .  S
C1978      H1982   1.110       .  S
C1978      H1983   1.109       .  S
C1978      H1984   1.111       .  S
C1985      C1986   1.400       .  A
C1985      C1990   1.404       .  A
C1985      H1992   1.084       .  S
C1986      C1987   1.410       .  A
C1987      C1988   1.399       .  A
C1987      C1994   1.505       .  S
C1988      C1989   1.401       .  A
C1988      H1993   1.084       .  S
C1989      C1990   1.414       .  A
C1990      C1991   1.506       .  S
C1991      H1995   1.111       .  S
C1991      H1996   1.106       .  S
C1991      H1997   1.110       .  S
C1994      H1998   1.110       .  S
C1994      H1999   1.109       .  S
C1994      H2000   1.111       .  S
C2001      C2002   1.401       .  A
C2001      C2006   1.393       .  A
C2001      H2008   1.080       .  S
C2002      C2003   1.412       .  A
C2003      C2004   1.407       .  A
C2003      C2010   1.507       .  S
C2004      C2005   1.405       .  A
C2004      H2009   1.082       .  S
C2005      C2006   1.409       .  A
C2006      C2007   1.508       .  S
C2007      H2011   1.110       .  S
C2007      H2012   1.111       .  S
C2007      H2013   1.108       .  S
C2010      H2014   1.110       .  S
C2010      H2015   1.110       .  S
C2010      H2016   1.111       .  S
C2017      C2018   1.407       .  A
C2017      C2022   1.400       .  A
C2017      H2024   1.084       .  S
C2018      C2019   1.415       .  A
C2019      C2020   1.402       .  A
C2019      C2026   1.507   1_556  S
C2020      C2021   1.400       .  A
C2020      H2025   1.082   1_556  S
C2021      C2022   1.408       .  A
C2022      C2023   1.506       .  S
C2023      H2027   1.110       .  S
C2023      H2028   1.109       .  S
C2023      H2029   1.109       .  S
C2026      H2030   1.111   1_554  S
C2026      H2031   1.109       .  S
C2033      C2034   1.399       .  A
C2033      C2038   1.402       .  A
C2033      H2040   1.084       .  S
C2034      C2035   1.413       .  A
C2035      C2036   1.407       .  A
C2035      C2042   1.507   1_556  S
C2036      C2037   1.403   1_655  A
C2036      H2041   1.082   1_656  S
C2037      C2038   1.411   1_455  A
C2038      C2039   1.502       .  S
C2039      H2043   1.111       .  S
C2039      H2044   1.106       .  S
C2039      H2045   1.109   1_655  S
C2042      H2046   1.110       .  S
C2042      H2047   1.111   1_554  S
C2042      H2048   1.111       .  S
C2049      C2050   1.400       .  A
C2049      C2054   1.400       .  A
C2049      H2056   1.085       .  S
C2051      C2052   1.403       .  A
C2051      C2058   1.506   1_455  S
C2052      H2057   1.084       .  S
C2053      C2054   1.411       .  A
C2054      C2055   1.504       .  S
C2055      H2059   1.111       .  S
C2055      H2060   1.110       .  S
C2058      H2062   1.110   1_655  S
C2058      H2063   1.108       .  S
C2058      H2064   1.111       .  S
C2065      C2066   1.397   1_554  A
C2065      C2070   1.403       .  A
C2065      H2072   1.083       .  S
C2066      C2067   1.408       .  A
C2067      C2068   1.405       .  A
C2067      C2074   1.504       .  S
C2068      C2069   1.405       .  A
C2068      H2073   1.084       .  S
C2069      C2070   1.417   1_556  A
C2070      C2071   1.507       .  S
C2071      H2075   1.111       .  S
C2071      H2076   1.110       .  S
C2071      H2077   1.108       .  S
C2074      H2079   1.107       .  S
C2074      H2080   1.111       .  S
C2081      C2082   1.407       .  A
C2081      C2086   1.400   1_556  A
C2081      H2088   1.084   1_556  S
C2082      C2083   1.422       .  A
C2083      C2084   1.403       .  A
C2083      C2090   1.510       .  S
C2084      C2085   1.398       .  A
C2084      H2089   1.081       .  S
C2085      C2086   1.407   1_556  A
C2087      H2091   1.111       .  S
C2087      H2092   1.109       .  S
C2087      H2093   1.110       .  S
C2090      H2094   1.109       .  S
C2090      H2095   1.110       .  S
C2090      H2096   1.111       .  S
C2097      C2102   1.395       .  A
C2097      H2104   1.085       .  S
C2098      C2099   1.416       .  A
C2099      C2100   1.409       .  A
C2099      C2106   1.507       .  S
C2100      C2101   1.404       .  A
C2100      H2105   1.083       .  S
C2102      C2103   1.508       .  S
C2103      H2107   1.110       .  S
C2103      H2108   1.111       .  S
C2103      H2109   1.109       .  S
C2106      H2110   1.109       .  S
C2106      H2111   1.110       .  S
C2106      H2112   1.111       .  S
