geometry optimzed in LAMMPS
_audit_creation_date              2020-12-01 
_audit_creation_method            'lammps2cif' 
_symmetry_space_group_name_H-M    'P1' 
_symmetry_Int_Tables_number       1 
_symmetry_cell_setting            triclinic 
loop_ 
_symmetry_equiv_pos_as_xyz 
  x,y,z 
_cell_length_a                    34.84735425 
_cell_length_b                    34.847175572900824 
_cell_length_c                    34.92151040532972 
_cell_angle_alpha                 89.8328057969862 
_cell_angle_beta                  90.07155303533192 
_cell_angle_gamma                 89.90071130567596 
loop_ 
_atom_site_label 
_atom_site_type_symbol 
_atom_site_fract_x 
_atom_site_fract_y 
_atom_site_fract_z 
_atom_site_charge 
O1          O  0.23468676  0.62263508  0.50824041    -0.83600
C2          C  0.11446049  0.57040227  0.59893868     0.95800
O3          O  0.13451894  0.59953666  0.60953946    -0.72700
O4          O  0.20999293  0.58897950  0.60488402    -0.76300
Al5        Al  0.17730610  0.62649973  0.58202913     1.49000
C6          C  0.23359659  0.56581318  0.59040158     0.91000
O7          O  0.18444242  0.52855087  0.51384406    -0.82500
O8          O  0.13050458  0.62401640  0.48064874    -0.76100
Al9        Al  0.20654718  0.57832847  0.51275927     1.90100
O10         O  0.12904743  0.54710895  0.49245827    -0.75100
O11         O  0.09743033  0.63565960  0.54679406    -0.75000
O12         O  0.11091975  0.56181913  0.56405498    -0.80600
O13         O  0.14521560  0.67004891  0.56660358    -0.78800
O14         O  0.16902485  0.59969458  0.53952088    -1.15000
O15         O  0.22224895  0.65516988  0.56068057    -0.74200
C16         C  0.24172632  0.65009308  0.53001610     0.96500
C17         C  0.15400126  0.52126247  0.49636684     0.92900
Al18       Al  0.12121931  0.59288671  0.52277440     1.55600
O19         O  0.23556444  0.56168273  0.55476961    -0.78800
C20         C  0.11026578  0.66763110  0.55710585     0.97100
C21         C  0.15672136  0.61623519  0.45707590     0.92000
O22         O  0.18400210  0.59316922  0.46501089    -0.84100
O23         O  0.12162666  0.53044333  0.26355550    -0.83600
C24         C  0.17372726  0.63261269  0.15037911     0.95800
O25         O  0.14256135  0.61370169  0.14612833    -0.72700
O26         O  0.15948555  0.54080144  0.15935876    -0.76300
Al27       Al  0.12135831  0.57292822  0.18037107     1.49000
C28         C  0.17840136  0.51480608  0.17608663     0.91000
O29         O  0.22174841  0.56467363  0.24398413    -0.82500
O30         O  0.13684610  0.63405571  0.27527890    -0.76100
Al31       Al  0.16991116  0.54982798  0.25124714     1.90100
O32         O  0.21150178  0.62594493  0.25220637    -0.75100
O33         O  0.11579152  0.65529881  0.20720871    -0.75000
O34         O  0.18828015  0.63686728  0.18290822    -0.80600
O35         O  0.07914319  0.60539004  0.19735299    -0.78800
O36         O  0.15091966  0.58530228  0.22003643    -1.15000
O37         O  0.09638287  0.52813049  0.20610852    -0.74200
C38         C  0.09835776  0.51576624  0.24053796     0.96500
C39         C  0.23374314  0.59731426  0.25331924     0.92900
Al40       Al  0.16208370  0.63406610  0.22839140     1.55600
O41         O  0.17865250  0.51232028  0.21222664    -0.78800
C42         C  0.08266495  0.64122402  0.20288063     0.97100
C43         C  0.14865163  0.61281094  0.30183537     0.92000
O44         O  0.16506781  0.58095410  0.29569127    -0.84100
O45         O  0.26369535  0.10167445  0.55037779    -0.83600
C46         C  0.14867497  0.16134089  0.64614049     0.95800
O47         O  0.14617619  0.12918696  0.62896613    -0.72700
O48         O  0.15943798  0.14367892  0.55485722    -0.76300
Al49       Al  0.18026080  0.10729090  0.58922500     1.49000
C50         C  0.17666869  0.16014265  0.52753416     0.91000
O51         O  0.24539378  0.20559422  0.57097637    -0.82500
O52         O  0.27351457  0.13151739  0.65189541    -0.76100
Al53       Al  0.25186604  0.15230653  0.56303252     1.90100
O54         O  0.25006889  0.20355188  0.63325052    -0.75100
O55         O  0.20557500  0.11009212  0.67147449    -0.75000
O56         O  0.17895805  0.18066387  0.64403621    -0.80600
O57         O  0.19787383  0.06816827  0.62507640    -0.78800
O58         O  0.21976328  0.13805763  0.59946383    -1.15000
O59         O  0.20532700  0.07964877  0.54589278    -0.74200
C60         C  0.24026620  0.07926705  0.53516907     0.96500
C61         C  0.25385380  0.22147259  0.60200239     0.92900
Al62       Al  0.22615840  0.15523721  0.64649073     1.55600
O63         O  0.21285221  0.15781893  0.52422277    -0.78800
C64         C  0.20120992  0.07557360  0.66067223     0.97100
C65         C  0.30073074  0.13743659  0.62926511     0.92000
O66         O  0.29579287  0.14984808  0.59547863    -0.84100
O67         O  0.50231511  0.21479957  0.63770388    -0.83600
C68         C  0.60002458  0.10125625  0.57959641     0.95800
O69         O  0.60743547  0.11948648  0.61064059    -0.72700
O70         O  0.60240831  0.19611276  0.60295973    -0.76300
Al71       Al  0.57838247  0.16067144  0.63741105     1.49000
C72         C  0.58788352  0.22286423  0.58314922     0.91000
O73         O  0.51276103  0.17888438  0.53801187    -0.82500
O74         O  0.47894774  0.11163051  0.62378228    -0.76100
Al75       Al  0.50981591  0.19377421  0.59031933     1.90100
O76         O  0.49448871  0.12034731  0.54844722    -0.75100
O77         O  0.54551773  0.08007754  0.63638776    -0.75000
O78         O  0.56698258  0.10209728  0.56472984    -0.80600
O79         O  0.56039676  0.12505853  0.67683620    -0.78800
O80         O  0.53730337  0.15455132  0.60767815    -1.15000
O81         O  0.55607154  0.20322506  0.66835229    -0.74200
C82         C  0.52391570  0.22061400  0.66552986     0.96500
C83         C  0.49610355  0.14919324  0.52672384     0.92900
Al84       Al  0.52294810  0.10755176  0.59435326     1.55600
O85         O  0.55202157  0.22595538  0.57977273    -0.78800
C86         C  0.55331628  0.09002370  0.67017489     0.97100
C87         C  0.45514633  0.13857518  0.61979861     0.92000
O88         O  0.46230324  0.16831525  0.59988116    -0.84100
O89         O  0.64051850  0.47711817  0.21152504    -0.83600
C90         C  0.57885373  0.59049588  0.11417022     0.95800
O91         O  0.61133533  0.59397327  0.13080119    -0.72700
O92         O  0.59826646  0.58000239  0.20447977    -0.76300
Al93       Al  0.63471358  0.55996619  0.17037917     1.49000
C94         C  0.58109886  0.56292868  0.23140093     0.91000
O95         O  0.53708964  0.49198473  0.18648007    -0.82500
O96         O  0.61431719  0.46631529  0.10848963    -0.76100
Al97       Al  0.59030917  0.48749730  0.19644514     1.90100
O98         O  0.54111516  0.48796303  0.12430876    -0.75100
O99         O  0.63365939  0.53461209  0.08811092    -0.75000
O100        O  0.56213932  0.55866418  0.11362340    -0.80600
O101        O  0.67451823  0.54317288  0.13517845    -0.78800
O102        O  0.60483509  0.51983149  0.16003650    -1.15000
O103        O  0.66294737  0.53549653  0.21371386    -0.74200
C104        C  0.66332089  0.50088970  0.22551502     0.96500
C105        C  0.52203041  0.48446212  0.15477294     0.92900
Al106      Al  0.58903363  0.51273179  0.11250538     1.55600
O107        O  0.58234046  0.52667275  0.23451266    -0.78800
C108        C  0.66793153  0.53881252  0.09961107     0.97100
C109        C  0.60926610  0.43903377  0.13131506     0.92000
O110        O  0.59551882  0.44347656  0.16459183    -0.84100
O111        O  0.52932483  0.23838697  0.11932115    -0.83600
C112        C  0.64379604  0.13963778  0.17482272     0.95800
O113        O  0.62366737  0.13124651  0.14524038    -0.72700
O114        O  0.54882409  0.13919485  0.16008770    -0.76300
Al115      Al  0.58061443  0.16017002  0.12099651     1.49000
C116        C  0.52317963  0.15563964  0.17963684     0.91000
O117        O  0.57256671  0.23072559  0.21698760    -0.82500
O118        O  0.63385424  0.25924334  0.12524716    -0.76100
Al119      Al  0.55367189  0.23229623  0.16582759     1.90100
O120        O  0.63090803  0.24643410  0.20194374    -0.75100
O121        O  0.66147533  0.19140282  0.11212394    -0.75000
O122        O  0.64586654  0.17359536  0.18687331    -0.80600
O123        O  0.61204252  0.17567431  0.07725977    -0.78800
O124        O  0.59051940  0.20273586  0.14726408    -1.15000
O125        O  0.53478315  0.18115616  0.09386179    -0.74200
C126        C  0.51844445  0.21391262  0.09565515     0.96500
C127        C  0.60385634  0.24596344  0.22590560     0.92900
Al128      Al  0.63892360  0.21621406  0.15586856     1.55600
O129        O  0.52086099  0.19171206  0.18056771    -0.78800
C130        C  0.64756413  0.18328916  0.07974308     0.97100
C131        C  0.60877873  0.28441352  0.13133184     0.92000
O132        O  0.57982459  0.27853237  0.15261577    -0.84100
O133        O  0.73176432  0.86217191  0.50062142    -0.83600
C134        C  0.61373181  0.91582153  0.40726640     0.95800
O135        O  0.63380685  0.88649734  0.39732199    -0.72700
O136        O  0.70918332  0.89699297  0.40307803    -0.76300
Al137      Al  0.67607894  0.85972642  0.42559307     1.49000
C138        C  0.73344176  0.91918941  0.41798708     0.91000
O139        O  0.68385383  0.95754210  0.49395868    -0.82500
O140        O  0.62771744  0.86345442  0.52617509    -0.76100
Al141      Al  0.70486921  0.90730082  0.49537439     1.90100
O142        O  0.62728897  0.94045123  0.51339798    -0.75100
O143        O  0.59559913  0.85059448  0.46007306    -0.75000
O144        O  0.60957078  0.92474761  0.44196060    -0.80600
O145        O  0.64414937  0.81664103  0.44116133    -0.78800
O146        O  0.66735281  0.88674785  0.46787711    -1.15000
O147        O  0.72033444  0.83068401  0.44738824    -0.74200
C148        C  0.73874874  0.83473988  0.47878316     0.96500
C149        C  0.65304249  0.96560574  0.51042003     0.92900
Al150      Al  0.61927512  0.89412164  0.48372976     1.55600
O151        O  0.73510881  0.92308253  0.45370796    -0.78800
C152        C  0.60921916  0.81856462  0.45059045     0.97100
C153        C  0.65396125  0.87022793  0.54997536     0.92000
O154        O  0.68135368  0.89324777  0.54280681    -0.84100
O155        O  0.61469174  0.94573520  0.74150507    -0.83600
C156        C  0.66743673  0.84627586  0.85713489     0.95800
O157        O  0.63608251  0.86502367  0.85998484    -0.72700
O158        O  0.65321278  0.93792375  0.84632248    -0.76300
Al159      Al  0.61562541  0.90530299  0.82522601     1.49000
C160        C  0.67133134  0.96424837  0.82933858     0.91000
O161        O  0.71605207  0.91581194  0.76244115    -0.82500
O162        O  0.63528781  0.84249204  0.73107053    -0.76100
Al163      Al  0.66383709  0.92851471  0.75450831     1.90100
O164        O  0.70874479  0.85384730  0.75636513    -0.75100
O165        O  0.61185866  0.82251121  0.79875718    -0.75000
O166        O  0.68392666  0.84291693  0.82546363    -0.80600
O167        O  0.57430441  0.87219529  0.80806544    -0.78800
O168        O  0.64591908  0.89289972  0.78605260    -1.15000
O169        O  0.59050574  0.94970974  0.79915562    -0.74200
C170        C  0.59182469  0.96116267  0.76445988     0.96500
C171        C  0.72957349  0.88344829  0.75427127     0.92900
Al172      Al  0.65885265  0.84434873  0.77884571     1.55600
O173        O  0.67097952  0.96682735  0.79317888    -0.78800
C174        C  0.57846538  0.83625940  0.80342583     0.97100
C175        C  0.64624260  0.86405105  0.70448422     0.92000
O176        O  0.66083380  0.89671315  0.71051723    -0.84100
O177        O  0.24261279  0.88064397  0.05199760    -0.83600
C178        C  0.35998794  0.82027568  0.14512560     0.95800
O179        O  0.36145039  0.85256583  0.12801041    -0.72700
O180        O  0.34668897  0.83715696  0.05391490    -0.76300
Al181      Al  0.32644705  0.87361708  0.08841681     1.49000
C182        C  0.32872945  0.82110652  0.02677058     0.91000
O183        O  0.25918031  0.77598078  0.07018390    -0.82500
O184        O  0.23476392  0.84624563  0.15371778    -0.76100
Al185      Al  0.25394197  0.82943431  0.06350752     1.90100
O186        O  0.25964120  0.77542415  0.13268033    -0.75100
O187        O  0.30241304  0.86970976  0.17088949    -0.75000
O188        O  0.33054587  0.79984787  0.14218050    -0.80600
O189        O  0.30881162  0.91247418  0.12462884    -0.78800
O190        O  0.28723147  0.84244755  0.09932442    -1.15000
O191        O  0.30109001  0.90089802  0.04469881    -0.74200
C192        C  0.26594404  0.90160829  0.03473142     0.96500
C193        C  0.25337555  0.75880885  0.10118387     0.92900
Al194      Al  0.28260091  0.82408104  0.14618361     1.55600
O195        O  0.29243429  0.82382095  0.02400943    -0.78800
C196        C  0.30574354  0.90452787  0.16026920     0.97100
C197        C  0.20693167  0.84182290  0.13149568     0.92000
O198        O  0.21095247  0.83174298  0.09693255    -0.84100
O199        O  0.00298472  0.76310392  0.13676724    -0.83600
C200        C  0.91002132  0.87893631  0.07591716     0.95800
O201        O  0.90124994  0.86073161  0.10669027    -0.72700
O202        O  0.90540158  0.78431440  0.09975943    -0.76300
Al203      Al  0.92873745  0.81953484  0.13492959     1.49000
C204        C  0.92005729  0.75817442  0.07941146     0.91000
O205        O  0.99757085  0.80233965  0.03798453    -0.82500
O206        O  0.02935522  0.86696148  0.12615719    -0.76100
Al207      Al  0.99818366  0.78599931  0.08982514     1.90100
O208        O  0.01737031  0.85988109  0.05002412    -0.75100
O209        O  0.96257838  0.89981866  0.13535129    -0.75000
O210        O  0.94399571  0.87896504  0.06312016    -0.80600
O211        O  0.94568568  0.85493622  0.17517852    -0.78800
O212        O  0.97091180  0.82535576  0.10681291    -1.15000
O213        O  0.94930474  0.77669294  0.16658670    -0.74200
C214        C  0.98054308  0.75775949  0.16400165     0.96500
C215        C  0.01570219  0.83153042  0.02783432     0.92900
Al216      Al  0.98670957  0.87233925  0.09461372     1.55600
O217        O  0.95591757  0.75517437  0.07637793    -0.78800
C218        C  0.95363177  0.88989805  0.16884832     0.97100
C219        C  0.05285166  0.83962577  0.12286817     0.92000
O220        O  0.04578604  0.81026271  0.10243026    -0.84100
O221        O  0.36867657  0.97977263  0.30273863    -0.83600
C222        C  0.42282894  0.09963881  0.39572151     0.95800
O223        O  0.39061360  0.10085283  0.37826035    -0.72700
O224        O  0.40591182  0.08603351  0.30455540    -0.76300
Al225      Al  0.37010016  0.06468255  0.33915076     1.49000
C226        C  0.42267304  0.06860173  0.27760864     0.91000
O227        O  0.47138172  0.00394276  0.32378988    -0.82500
O228        O  0.39716751  0.97296687  0.40363910    -0.76100
Al229      Al  0.41860322  0.99442100  0.31533709     1.90100
O230        O  0.46855381  0.00038721  0.38624802    -0.75100
O231        O  0.37217175  0.04019953  0.42215701    -0.75000
O232        O  0.44202852  0.06923724  0.39637299    -0.80600
O233        O  0.33115615  0.04650985  0.37464614    -0.78800
O234        O  0.40231711  0.02664431  0.35085581    -1.15000
O235        O  0.34386415  0.03703167  0.29621569    -0.74200
C236        C  0.34512035  0.00171191  0.28665586     0.96500
C237        C  0.48731400  0.99738983  0.35542304     0.92900
Al238      Al  0.41867964  0.02146242  0.39837268     1.55600
O239        O  0.42167193  0.03233454  0.27542583    -0.78800
C240        C  0.33778314  0.04285602  0.41034156     0.97100
C241        C  0.40718091  0.94590641  0.38233803     0.92000
O242        O  0.41935428  0.95123946  0.34863322    -0.84100
O243        O  0.48736526  0.73725339  0.38525352    -0.83600
C244        C  0.36349078  0.65264661  0.33151002     0.95800
O245        O  0.38360171  0.64066044  0.36012953    -0.72700
O246        O  0.45949550  0.64215188  0.34972039    -0.76300
Al247      Al  0.42750500  0.66556581  0.38743623     1.49000
C248        C  0.48412935  0.65628483  0.32740315     0.91000
O249        O  0.43792182  0.73572860  0.29102990    -0.82500
O250        O  0.38540474  0.76869012  0.38697208    -0.76100
Al251      Al  0.45973512  0.73478434  0.34081454     1.90100
O252        O  0.38358747  0.75939698  0.30972559    -0.75100
O253        O  0.34892161  0.70385273  0.39722055    -0.75000
O254        O  0.36178586  0.68782859  0.32291043    -0.80600
O255        O  0.39605564  0.68121606  0.43095565    -0.78800
O256        O  0.42104258  0.70899889  0.36137834    -1.15000
O257        O  0.47297411  0.68449639  0.41678188    -0.74200
C258        C  0.49323807  0.71481046  0.41251884     0.96500
C259        C  0.40864326  0.75534337  0.28404967     0.92900
Al260      Al  0.37404416  0.72802177  0.35483806     1.55600
O261        O  0.48735840  0.69197961  0.32387430    -0.78800
C262        C  0.36136509  0.69171160  0.42880772     0.97100
C263        C  0.41275523  0.79129244  0.38010856     0.92000
O264        O  0.43917804  0.78320270  0.35629594    -0.84100
O265        O  0.50125689  0.70869903  0.87085419    -0.83600
C266        C  0.40104559  0.59774110  0.93157502     0.95800
O267        O  0.39384681  0.61649479  0.90078302    -0.72700
O268        O  0.40063620  0.69231336  0.91210935    -0.76300
Al269      Al  0.42286097  0.65846731  0.87538446     1.49000
C270        C  0.41643307  0.71965037  0.92982947     0.91000
O271        O  0.49142545  0.67569704  0.97199986    -0.82500
O272        O  0.52239852  0.60603418  0.88775307    -0.76100
Al273      Al  0.49381754  0.68939271  0.91942495     1.90100
O274        O  0.50590860  0.61562806  0.96317669    -0.75100
O275        O  0.45504833  0.57770096  0.87417454    -0.75000
O276        O  0.43384751  0.59876312  0.94674254    -0.80600
O277        O  0.43982901  0.62400793  0.83463724    -0.78800
O278        O  0.46478237  0.65085129  0.90366905    -1.15000
O279        O  0.44403341  0.70274994  0.84561605    -0.74200
C280        C  0.47721017  0.71825479  0.84613822     0.96500
C281        C  0.50548490  0.64491246  0.98425456     0.92900
Al282      Al  0.47800337  0.60346769  0.91696661     1.55600
O283        O  0.45246239  0.72330352  0.92986098    -0.78800
C284        C  0.44688145  0.58868584  0.84063261     0.97100
C285        C  0.54690094  0.63221149  0.89132984     0.92000
O286        O  0.54041466  0.66246511  0.91039761    -0.84100
O287        O  0.74111981  0.60222843  0.96261814    -0.83600
C288        C  0.85221492  0.66329634  0.86284158     0.95800
O289        O  0.85630836  0.63127362  0.88037223    -0.72700
O290        O  0.84454155  0.64337253  0.95526906    -0.76300
Al291      Al  0.82349713  0.60741016  0.92037986     1.49000
C292        C  0.82780726  0.66001432  0.98275529     0.91000
O293        O  0.75781410  0.70538887  0.93808980    -0.82500
O294        O  0.72849026  0.62771275  0.86070123    -0.76100
Al295      Al  0.75199540  0.65225679  0.94795663     1.90100
O296        O  0.74882838  0.70110835  0.87649749    -0.75100
O297        O  0.79680660  0.60981493  0.83832706    -0.75000
O298        O  0.82076668  0.68098028  0.86405429    -0.80600
O299        O  0.80633935  0.56799822  0.88441613    -0.78800
O300        O  0.78327444  0.63753120  0.91094816    -1.15000
O301        O  0.79926091  0.57858910  0.96349462    -0.74200
C302        C  0.76478122  0.57861792  0.97569415     0.96500
C303        C  0.74651532  0.71994371  0.90722315     0.92900
Al304      Al  0.77474449  0.65372531  0.86368898     1.55600
O305        O  0.79160320  0.65894385  0.98582729    -0.78800
C306        C  0.80209069  0.57537199  0.84889218     0.97100
C307        C  0.70169225  0.63361217  0.88386563     0.92000
O308        O  0.70706651  0.64811029  0.91671556    -0.84100
O309        O  0.27886860  0.35066009  0.00383160    -0.83600
C310        C  0.39204631  0.40904895  0.10181587     0.95800
O311        O  0.37286927  0.37890404  0.11058008    -0.72700
O312        O  0.29864407  0.39328250  0.10266270    -0.76300
Al313      Al  0.33000573  0.35402807  0.08204077     1.49000
C314        C  0.27265831  0.41272750  0.08657983     0.91000
O315        O  0.31906963  0.44956021  0.01188248    -0.82500
O316        O  0.38216336  0.35908690  0.98219740    -0.76100
Al317      Al  0.30159112  0.39809816  0.01003852     1.90100
O318        O  0.37791136  0.43602331  0.99601997    -0.75100
O319        O  0.41038105  0.34591117  0.04969412    -0.75000
O320        O  0.39431773  0.42035247  0.06763731    -0.80600
O321        O  0.36165573  0.31054719  0.06672547    -0.78800
O322        O  0.33916583  0.38023966  0.03927208    -1.15000
O323        O  0.28424053  0.32619678  0.06152995    -0.74200
C324        C  0.26833280  0.32695451  0.02853164     0.96500
C325        C  0.35043718  0.45958118  0.99756789     0.92900
Al326      Al  0.38723707  0.38956866  0.02529202     1.55600
O327        O  0.26844152  0.41199276  0.05074273    -0.78800
C328        C  0.39696315  0.31343211  0.05843914     0.97100
C329        C  0.35637482  0.36457251  0.95760453     0.92000
O330        O  0.32772425  0.38624917  0.96373966    -0.84100
O331        O  0.38681976  0.44508844  0.76844498    -0.83600
C332        C  0.33028234  0.34922285  0.65216666     0.95800
O333        O  0.36228833  0.36686498  0.64934717    -0.72700
O334        O  0.34610151  0.43956227  0.66494668    -0.76300
Al335      Al  0.38366993  0.40634906  0.68460090     1.49000
C336        C  0.32825170  0.46577398  0.68238445     0.91000
O337        O  0.28461411  0.41634972  0.75107061    -0.82500
O338        O  0.36550020  0.34079651  0.77624648    -0.76100
Al339      Al  0.33730380  0.42836819  0.75684715     1.90100
O340        O  0.29169482  0.35417239  0.75417602    -0.75100
O341        O  0.38621424  0.32312919  0.70771641    -0.75000
O342        O  0.31376544  0.34646322  0.68390103    -0.80600
O343        O  0.42479374  0.37237973  0.70132259    -0.78800
O344        O  0.35386765  0.39354744  0.72393257    -1.15000
O345        O  0.40943371  0.45028949  0.71040092    -0.74200
C346        C  0.40878297  0.46123933  0.74516682     0.96500
C347        C  0.27107334  0.38371240  0.75795068     0.92900
Al348      Al  0.34034505  0.34506586  0.72974591     1.55600
O349        O  0.32866535  0.46761895  0.71866074    -0.78800
C350        C  0.41997912  0.33638404  0.70506695     0.97100
C351        C  0.35766593  0.36209611  0.80396565     0.92000
O352        O  0.34267996  0.39504927  0.79993226    -0.84100
O353        O  0.02082247  0.23746599  0.88688856    -0.83600
C354        C  0.14298653  0.32577248  0.83516329     0.95800
O355        O  0.12294767  0.33639006  0.86416083    -0.72700
O356        O  0.04732886  0.33425745  0.85309500    -0.76300
Al357      Al  0.07959133  0.31005175  0.89049319     1.49000
C358        C  0.02268542  0.32046244  0.83057436     0.91000
O359        O  0.06942377  0.24289697  0.79250330    -0.82500
O360        O  0.12333399  0.20690731  0.88676919    -0.76100
Al361      Al  0.04803882  0.24179882  0.84233386     1.90100
O362        O  0.12446168  0.21964801  0.81000003    -0.75100
O363        O  0.15855419  0.27200922  0.89926499    -0.75000
O364        O  0.14538004  0.29092200  0.82561179    -0.80600
O365        O  0.11148554  0.29356763  0.93364980    -0.78800
O366        O  0.08656547  0.26739664  0.86341566    -1.15000
O367        O  0.03435817  0.28985547  0.91915097    -0.74200
C368        C  0.01450211  0.25940032  0.91433920     0.96500
C369        C  0.09905401  0.22425599  0.78470603     0.92900
Al370      Al  0.13380316  0.24922428  0.85613044     1.55600
O371        O  0.01964378  0.28480727  0.82663006    -0.78800
C372        C  0.14630896  0.28355903  0.93104699     0.97100
C373        C  0.09610784  0.18432089  0.87942129     0.92000
O374        O  0.06929673  0.19307371  0.85620259    -0.84100
O375        O  0.13440550  0.99776261  0.80092416    -0.83600
C376        C  0.08552570  0.87481183  0.89345665     0.95800
O377        O  0.11730256  0.87503383  0.87542136    -0.72700
O378        O  0.09968798  0.89077503  0.80206863    -0.76300
Al379      Al  0.13561670  0.91234069  0.83654057     1.49000
C380        C  0.08151331  0.90835374  0.77594871     0.91000
O381        O  0.03243280  0.97195526  0.82353563    -0.82500
O382        O  0.10634188  0.00149838  0.90348060    -0.76100
Al383      Al  0.08499158  0.98206497  0.81449274     1.90100
O384        O  0.03576813  0.97290855  0.88593846    -0.75100
O385        O  0.13378762  0.93467897  0.91985203    -0.75000
O386        O  0.06448719  0.90399838  0.89339435    -0.80600
O387        O  0.17459608  0.93086418  0.87194879    -0.78800
O388        O  0.10250143  0.94935866  0.84921938    -1.15000
O389        O  0.16039427  0.94115639  0.79389193    -0.74200
C390        C  0.15843432  0.97653324  0.78479261     0.96500
C391        C  0.01674538  0.97732735  0.85540150     0.92900
Al392      Al  0.08632467  0.95259579  0.89690855     1.55600
O393        O  0.08143225  0.94470078  0.77431084    -0.78800
C394        C  0.16815836  0.93347049  0.90777429     0.97100
C395        C  0.09706838  0.02905588  0.88227507     0.92000
O396        O  0.08468300  0.02450015  0.84852112    -0.84100
O397        O  0.97586251  0.73765475  0.61681301    -0.83600
C398        C  0.86005249  0.83090398  0.67729287     0.95800
O399        O  0.87899616  0.84115024  0.64749048    -0.72700
O400        O  0.95397699  0.83564713  0.66117492    -0.76300
Al401      Al  0.92276791  0.81454365  0.62189005     1.49000
C402        C  0.98132480  0.81986230  0.67896855     0.91000
O403        O  0.93599814  0.74312061  0.71579865    -0.82500
O404        O  0.87411146  0.71280907  0.62467293    -0.76100
Al405      Al  0.95344450  0.74241938  0.66431288     1.90100
O406        O  0.87789098  0.72497886  0.70182617    -0.75100
O407        O  0.84331393  0.77968119  0.61304513    -0.75000
O408        O  0.85887394  0.79631334  0.68761823    -0.80600
O409        O  0.89143308  0.79909310  0.57820718    -0.78800
O410        O  0.91500676  0.77087948  0.64712944    -1.15000
O411        O  0.96929915  0.79601992  0.59390239    -0.74200
C412        C  0.98633813  0.76349352  0.59432437     0.96500
C413        C  0.90516109  0.72741054  0.72551770     0.92900
Al414      Al  0.86746615  0.75499022  0.65603029     1.55600
O415        O  0.98566211  0.78395526  0.67821003    -0.78800
C416        C  0.85626524  0.79010123  0.58092810     0.97100
C417        C  0.90032336  0.68863513  0.63017315     0.92000
O418        O  0.92874208  0.69523708  0.65196564    -0.84100
O419        O  0.86965124  0.50079641  0.70923517    -0.83600
C420        C  0.92602762  0.38214151  0.61590776     0.95800
O421        O  0.89377744  0.38042516  0.63312602    -0.72700
O422        O  0.90858244  0.39641837  0.70638054    -0.76300
Al423      Al  0.87234663  0.41647568  0.67161294     1.49000
C424        C  0.92678394  0.41392746  0.73232334     0.91000
O425        O  0.97249794  0.48242786  0.68409507    -0.82500
O426        O  0.89572983  0.50675638  0.60501072    -0.76100
Al427      Al  0.91941386  0.48840365  0.69412739     1.90100
O428        O  0.96820944  0.48338265  0.62185723    -0.75100
O429        O  0.87354407  0.43849588  0.58820076    -0.75000
O430        O  0.94462839  0.41287273  0.61522532    -0.80600
O431        O  0.83279238  0.43335195  0.63587202    -0.78800
O432        O  0.90352563  0.45517877  0.65931629    -1.15000
O433        O  0.84530078  0.44339286  0.71409658    -0.74200
C434        C  0.84596241  0.47845851  0.72421509     0.96500
C435        C  0.98748959  0.48842314  0.65202082     0.92900
Al436      Al  0.91934017  0.45967322  0.61147355     1.55600
O437        O  0.92681980  0.45032614  0.73378031    -0.78800
C438        C  0.83920126  0.43614675  0.60008028     0.97100
C439        C  0.90175340  0.53472952  0.62658550     0.92000
O440        O  0.91510170  0.53115433  0.66020755    -0.84100
O441        O  0.00246748  0.27088878  0.37220284    -0.83600
C442        C  0.10175690  0.38371275  0.43015508     0.95800
O443        O  0.10931586  0.36417351  0.40006930    -0.72700
O444        O  0.10313122  0.28861518  0.41288786    -0.76300
Al445      Al  0.08074592  0.32170431  0.37536879     1.49000
C446        C  0.08753918  0.26145282  0.43110664     0.91000
O447        O  0.01367753  0.30621677  0.47210034    -0.82500
O448        O  0.98093292  0.37322811  0.38554919    -0.76100
Al449      Al  0.01024798  0.29120019  0.42013269     1.90100
O450        O  0.99660088  0.36535143  0.46147465    -0.75100
O451        O  0.04792102  0.40243576  0.37163566    -0.75000
O452        O  0.06884379  0.38309792  0.44505182    -0.80600
O453        O  0.06402456  0.35529332  0.33377025    -0.78800
O454        O  0.03879582  0.32962459  0.40318212    -1.15000
O455        O  0.05947987  0.27700884  0.34644769    -0.74200
C456        C  0.02630979  0.26143177  0.34735172     0.96500
C457        C  0.99793266  0.33645781  0.48331917     0.92900
Al458      Al  0.02493386  0.37715368  0.41507435     1.55600
O459        O  0.05158825  0.25757954  0.43112435    -0.78800
C460        C  0.05692181  0.39072141  0.33861043     0.97100
C461        C  0.95663987  0.34702675  0.39020418     0.92000
O462        O  0.96329251  0.31762980  0.41072474    -0.84100
O463        O  0.76462661  0.37777343  0.46054185    -0.83600
C464        C  0.65202937  0.31586067  0.36294692     0.95800
O465        O  0.64796984  0.34769161  0.38070066    -0.72700
O466        O  0.66141017  0.33400005  0.45581110    -0.76300
Al467      Al  0.68136987  0.37075915  0.42116999     1.49000
C468        C  0.67903830  0.31858179  0.48362906     0.91000
O469        O  0.74927536  0.27390678  0.43814245    -0.82500
O470        O  0.77524631  0.35108895  0.35914175    -0.76100
Al471      Al  0.75419244  0.32720287  0.44717667     1.90100
O472        O  0.75479835  0.27772448  0.37597678    -0.75100
O473        O  0.70693612  0.36993766  0.33885076    -0.75000
O474        O  0.68321028  0.29795875  0.36488289    -0.80600
O475        O  0.69815405  0.41070828  0.38591739    -0.78800
O476        O  0.72172134  0.34117845  0.41084348    -1.15000
O477        O  0.70582121  0.39889098  0.46478886    -0.74200
C478        C  0.74077763  0.39978404  0.47566094     0.96500
C479        C  0.75848123  0.25903950  0.40679316     0.92900
Al480      Al  0.72911518  0.32528950  0.36346661     1.55600
O481        O  0.71534094  0.32027440  0.48601829    -0.78800
C482        C  0.70266744  0.40421113  0.35033659     0.97100
C483        C  0.80259805  0.34542845  0.38171040     0.92000
O484        O  0.79812318  0.33148141  0.41495790    -0.84100
O485        O  0.89344969  0.03317284  0.24051493    -0.83600
C486        C  0.83532252  0.13159011  0.35350663     0.95800
O487        O  0.86707842  0.11358308  0.35750162    -0.72700
O488        O  0.85169164  0.04038986  0.34387681    -0.76300
Al489      Al  0.88937786  0.07331965  0.32378453     1.49000
C490        C  0.83437883  0.01360340  0.32687824     0.91000
O491        O  0.79125275  0.06065983  0.25853238    -0.82500
O492        O  0.87186620  0.13555062  0.22950653    -0.76100
Al493      Al  0.84380735  0.04905782  0.25198537     1.90100
O494        O  0.79748799  0.12257049  0.25088057    -0.75100
O495        O  0.89207097  0.15614720  0.29758999    -0.75000
O496        O  0.81942030  0.13389979  0.32135545    -0.80600
O497        O  0.93045929  0.10710234  0.30748271    -0.78800
O498        O  0.86004006  0.08501430  0.28373494    -1.15000
O499        O  0.91610279  0.02899744  0.29877241    -0.74200
C500        C  0.91590543  0.01783125  0.26396699     0.96500
C501        C  0.77733459  0.09246689  0.24891632     0.92900
Al502      Al  0.84629052  0.13322665  0.27579881     1.55600
O503        O  0.83618852  0.01040810  0.29080315    -0.78800
C504        C  0.92566351  0.14301091  0.30296911     0.97100
C505        C  0.86329296  0.11356650  0.20257591     0.92000
O506        O  0.84802773  0.08100394  0.20783110    -0.84100
O507        O  0.77760359  0.12160146  0.00301916    -0.83600
C508        C  0.88960006  0.05998859  0.90598904     0.95800
O509        O  0.87117626  0.09054971  0.89634836    -0.72700
O510        O  0.79650323  0.07891829  0.90432634    -0.76300
Al511      Al  0.82863276  0.11721726  0.92487572     1.49000
C512        C  0.76975593  0.06053447  0.92016958     0.91000
O513        O  0.81653040  0.02229290  0.99589498    -0.82500
O514        O  0.88044243  0.11238998  0.02411546    -0.76100
Al515      Al  0.79960951  0.07399179  0.99712046     1.90100
O516        O  0.87569842  0.03548396  0.01113857    -0.75100
O517        O  0.90927435  0.12443433  0.95711525    -0.75000
O518        O  0.89217103  0.05014259  0.94049203    -0.80600
O519        O  0.86079529  0.16022231  0.94030326    -0.78800
O520        O  0.83735675  0.09108554  0.96771910    -1.15000
O521        O  0.78313380  0.14607855  0.94535528    -0.74200
C522        C  0.76709588  0.14529953  0.97831261     0.96500
C523        C  0.84832457  0.01196168  0.00923589     0.92900
Al524      Al  0.88536234  0.08146208  0.98184977     1.55600
O525        O  0.76603218  0.06053889  0.95612793    -0.78800
C526        C  0.89598070  0.15714592  0.94901254     0.97100
C527        C  0.85517153  0.10712626  0.04910459     0.92000
O528        O  0.82608016  0.08592530  0.04349501    -0.84100
C529        C  0.83260281  0.13884705  0.14635638    -0.15100
C530        C  0.86655205  0.12732388  0.16434590     0.07000
C531        C  0.89953402  0.11885984  0.14348836    -0.15100
C532        C  0.89705182  0.11714061  0.10397228    -0.15100
C533        C  0.86135471  0.12289564  0.08637232     0.07000
C534        C  0.82986302  0.13634256  0.10702520    -0.15100
H535        H  0.80706292  0.14516736  0.16291097     0.11000
H536        H  0.92557644  0.10952008  0.15775145     0.11000
H537        H  0.92145140  0.10669451  0.08781696     0.11000
H538        H  0.80238161  0.14114689  0.09321281     0.11000
C539        C  0.75717576  0.18856603  0.39587437    -0.15100
C540        C  0.77757314  0.22147254  0.40603297     0.07000
C541        C  0.81777189  0.21977455  0.40895321    -0.15100
C542        C  0.83764166  0.18660816  0.39788562    -0.15100
C543        C  0.81739570  0.15497111  0.38361833     0.07000
C544        C  0.77697019  0.15535832  0.38518114    -0.15100
H545        H  0.72621070  0.18953088  0.39320174     0.11000
H546        H  0.83390735  0.24524323  0.41640961     0.11000
H547        H  0.86864846  0.18756366  0.39582698     0.11000
H548        H  0.76075074  0.13160545  0.37348487     0.11000
C549        C  0.01870461  0.19166138  0.33523751    -0.15100
C550        C  0.01317417  0.22965929  0.32228774     0.07000
C551        C  0.98160723  0.23689911  0.29820192    -0.15100
C552        C  0.95469564  0.20804379  0.29001554    -0.15100
C553        C  0.95847953  0.17084698  0.30556498     0.07000
C554        C  0.99186883  0.16254373  0.32678618    -0.15100
H555        H  0.04155872  0.18540807  0.35539681     0.11000
H556        H  0.97544898  0.26601945  0.28909492     0.11000
H557        H  0.92951390  0.21558256  0.27338402     0.11000
H558        H  0.99567545  0.13440935  0.33948094     0.11000
C559        C  0.89912553  0.38577394  0.37934293    -0.15100
C560        C  0.91913533  0.35138816  0.37378454     0.07000
C561        C  0.90059696  0.31872282  0.35990708    -0.15100
C562        C  0.86109876  0.31877042  0.35696942    -0.15100
C563        C  0.84074462  0.35131270  0.36831327     0.07000
C564        C  0.85940602  0.38558929  0.37703432    -0.15100
H565        H  0.91357765  0.41107395  0.39004952     0.11000
H566        H  0.91623495  0.29222397  0.35519608     0.11000
H567        H  0.84633645  0.29220952  0.35045535     0.11000
H568        H  0.84331557  0.41058436  0.38615390     0.11000
C569        C  0.77241873  0.41665686  0.57702596    -0.15100
C570        C  0.80762547  0.43543947  0.57070916     0.07000
C571        C  0.81460723  0.45042474  0.53384157    -0.15100
C572        C  0.78905098  0.44387753  0.50347752    -0.15100
C573        C  0.75551070  0.42219341  0.50881841     0.07000
C574        C  0.74674724  0.40994905  0.54634470    -0.15100
H575        H  0.76611878  0.40454233  0.60489240     0.11000
H576        H  0.84118535  0.46534196  0.52781843     0.11000
H577        H  0.79737366  0.45263763  0.47488199     0.11000
H578        H  0.72203302  0.39177070  0.55121303     0.11000
C579        C  0.97976367  0.34501119  0.58924193    -0.15100
C580        C  0.94002543  0.35253405  0.58959430     0.07000
C581        C  0.91891739  0.34722810  0.55580427    -0.15100
C582        C  0.93794167  0.34023189  0.52125973    -0.15100
C583        C  0.97808148  0.33713898  0.52038982     0.07000
C584        C  0.99869886  0.33716167  0.55479351    -0.15100
H585        H  0.99676679  0.34987720  0.61476351     0.11000
H586        H  0.88852521  0.35384243  0.55506704     0.11000
H587        H  0.92159187  0.33964065  0.49484734     0.11000
H588        H  0.02966540  0.33440469  0.55459254     0.11000
C589        C  0.92952511  0.63190760  0.60196029    -0.15100
C590        C  0.89643297  0.65103911  0.61400025     0.07000
C591        C  0.86180631  0.63134866  0.61907568    -0.15100
C592        C  0.86199221  0.59158223  0.61836971    -0.15100
C593        C  0.89654847  0.57250196  0.61168408     0.07000
C594        C  0.92951072  0.59231190  0.60063251    -0.15100
H595        H  0.95622869  0.64726140  0.59771362     0.11000
H596        H  0.83616925  0.64622565  0.62845840     0.11000
H597        H  0.83664561  0.57593512  0.62725041     0.11000
H598        H  0.95626561  0.57720779  0.59564787     0.11000
C599        C  0.00534093  0.88329562  0.70291031    -0.15100
C600        C  0.00869137  0.84316423  0.70137462     0.07000
C601        C  0.03810726  0.82505745  0.72234468    -0.15100
C602        C  0.06271285  0.84640556  0.74547923    -0.15100
C603        C  0.05868684  0.88637642  0.74792803     0.07000
C604        C  0.03020038  0.90472255  0.72588425    -0.15100
H605        H  0.98306532  0.89806770  0.68696833     0.11000
H606        H  0.04163524  0.79419059  0.72160304     0.11000
H607        H  0.08438847  0.83149103  0.76209623     0.11000
H608        H  0.02622379  0.93550654  0.72742658     0.11000
C609        C  0.97026462  0.03015318  0.84170891    -0.15100
C610        C  0.97763471  0.99348206  0.85726102     0.07000
C611        C  0.94994210  0.97627657  0.88044147    -0.15100
C612        C  0.91688019  0.99655898  0.89043743    -0.15100
C613        C  0.91197776  0.03536115  0.87955307     0.07000
C614        C  0.93777093  0.05124437  0.85314612    -0.15100
H615        H  0.99164280  0.04403430  0.82397508     0.11000
H616        H  0.95503894  0.94816210  0.89280747     0.11000
H617        H  0.89730758  0.98344154  0.91063108     0.11000
H618        H  0.93519941  0.08107485  0.84474364     0.11000
C619        C  0.94450795  0.25217015  0.92275039    -0.15100
C620        C  0.98161749  0.24703495  0.93827869     0.07000
C621        C  0.98751929  0.21539893  0.96260229    -0.15100
C622        C  0.95872093  0.18769587  0.96788559    -0.15100
C623        C  0.92295278  0.19076438  0.94910595     0.07000
C624        C  0.91547280  0.22448263  0.92816659    -0.15100
H625        H  0.93935792  0.27528398  0.90255667     0.11000
H626        H  0.01595432  0.20960252  0.97380982     0.11000
H627        H  0.96547390  0.16242167  0.98473802     0.11000
H628        H  0.88836050  0.22797386  0.91337930     0.11000
C629        C  0.96798906  0.32876010  0.78525035    -0.15100
C630        C  0.99684398  0.34554702  0.80782955     0.07000
C631        C  0.00095569  0.38567323  0.80727611    -0.15100
C632        C  0.97726275  0.40833439  0.78377315    -0.15100
C633        C  0.94916519  0.39119137  0.76044485     0.07000
C634        C  0.94455892  0.35122569  0.76188507    -0.15100
H635        H  0.96378095  0.29797347  0.78509729     0.11000
H636        H  0.02293323  0.39942114  0.82432945     0.11000
H637        H  0.98168306  0.43907694  0.78300305     0.11000
H638        H  0.92320363  0.33708550  0.74435572     0.11000
C639        C  0.13276664  0.08684896  0.89847075    -0.15100
C640        C  0.09797009  0.06717670  0.89718721     0.07000
C641        C  0.06298851  0.08649287  0.90036274    -0.15100
C642        C  0.06252371  0.12611513  0.89934458    -0.15100
C643        C  0.09710030  0.14595699  0.89497991     0.07000
C644        C  0.13235177  0.12665457  0.89761157    -0.15100
H645        H  0.15977378  0.07165145  0.89570301     0.11000
H646        H  0.03605599  0.07096441  0.89937519     0.11000
H647        H  0.03520321  0.14098290  0.89796820     0.11000
H648        H  0.15922990  0.14189940  0.89433230     0.11000
C649        C  0.22332951  0.39301920  0.81025956    -0.15100
C650        C  0.23204314  0.37951661  0.77331127     0.07000
C651        C  0.20603171  0.35558462  0.75458864    -0.15100
C652        C  0.17335890  0.34266584  0.77361031    -0.15100
C653        C  0.16681376  0.35228271  0.81223792     0.07000
C654        C  0.19086352  0.37928092  0.82980623    -0.15100
H655        H  0.24352540  0.41116651  0.82529608     0.11000
H656        H  0.21237187  0.34476337  0.72622189     0.11000
H657        H  0.15521111  0.32188429  0.75936433     0.11000
H658        H  0.18687320  0.38663535  0.85965163     0.11000
C659        C  0.24043780  0.27691461  0.98668451    -0.15100
C660        C  0.23498859  0.30309433  0.01670492     0.07000
C661        C  0.19773428  0.31818802  0.02188746    -0.15100
C662        C  0.16772990  0.30983267  0.99591510    -0.15100
C663        C  0.17435882  0.28637481  0.96383091     0.07000
C664        C  0.21066605  0.26857297  0.96082656    -0.15100
H665        H  0.26893353  0.26595288  0.98079637     0.11000
H666        H  0.19287825  0.33976616  0.04363276     0.11000
H667        H  0.14035596  0.32416099  0.99925193     0.11000
H668        H  0.21701395  0.25007442  0.93677206     0.11000
C669        C  0.32729233  0.33797430  0.90033695    -0.15100
C670        C  0.36057693  0.34819878  0.92014961     0.07000
C671        C  0.39579663  0.35163718  0.90114784    -0.15100
C672        C  0.39624367  0.35145777  0.86140918    -0.15100
C673        C  0.36163889  0.34708664  0.84178006     0.07000
C674        C  0.32784170  0.33745910  0.86086586    -0.15100
H675        H  0.30012615  0.33481006  0.91511611     0.11000
H676        H  0.42162453  0.35944071  0.91654475     0.11000
H677        H  0.42230954  0.35902051  0.84628599     0.11000
H678        H  0.30109414  0.33407432  0.84533839     0.11000
C679        C  0.79697818  0.55582667  0.77985747    -0.15100
C680        C  0.80493480  0.54527136  0.81809074     0.07000
C681        C  0.81856796  0.50770708  0.82483328    -0.15100
C682        C  0.82719120  0.48292616  0.79386935    -0.15100
C683        C  0.82223248  0.49514509  0.75561490     0.07000
C684        C  0.80562234  0.53135637  0.74930711    -0.15100
H685        H  0.78610813  0.58419829  0.77314358     0.11000
H686        H  0.82494982  0.49840938  0.85374993     0.11000
H687        H  0.84107439  0.45570642  0.79975676     0.11000
H688        H  0.80229874  0.54211457  0.72034103     0.11000
C689        C  0.88961256  0.65414227  0.80359238    -0.15100
C690        C  0.88008334  0.67777831  0.83465628     0.07000
C691        C  0.88484358  0.71773562  0.83095419    -0.15100
C692        C  0.89565693  0.73395147  0.79587559    -0.15100
C693        C  0.90123113  0.71045022  0.76391731     0.07000
C694        C  0.89964044  0.67043353  0.76827138    -0.15100
H695        H  0.88499530  0.62344173  0.80529357     0.11000
H696        H  0.87666578  0.73658518  0.85418241     0.11000
H697        H  0.89676121  0.76489321  0.79294619     0.11000
H698        H  0.90401713  0.65192495  0.74378220     0.11000
C699        C  0.42421304  0.56392776  0.77543869    -0.15100
C700        C  0.44455013  0.55853512  0.80993866     0.07000
C701        C  0.45985537  0.52172405  0.81735160    -0.15100
C702        C  0.45240600  0.49067490  0.79301547    -0.15100
C703        C  0.42984706  0.49526731  0.76002136     0.07000
C704        C  0.41685522  0.53256958  0.75082384    -0.15100
H705        H  0.41177024  0.59164599  0.76881179     0.11000
H706        H  0.47588835  0.51624140  0.84340137     0.11000
H707        H  0.46173225  0.46226647  0.80165741     0.11000
H708        H  0.39800706  0.53680463  0.72647017     0.11000
C709        C  0.37168739  0.56506983  0.98744865    -0.15100
C710        C  0.37462013  0.56889221  0.94741458     0.07000
C711        C  0.36425674  0.53778500  0.92417863    -0.15100
C712        C  0.35470420  0.50242785  0.94075005    -0.15100
C713        C  0.35455447  0.49802538  0.98069594     0.07000
C714        C  0.36134496  0.52993056  0.00399302    -0.15100
H715        H  0.38060395  0.58834026  0.00593389     0.11000
H716        H  0.36758889  0.53957504  0.89338085     0.11000
H717        H  0.34944775  0.47794655  0.92241916     0.11000
H718        H  0.36132290  0.52694162  0.03487904     0.11000
C719        C  0.60468303  0.59315277  0.88368395    -0.15100
C720        C  0.58453968  0.62696276  0.87545790     0.07000
C721        C  0.60318750  0.65888778  0.85990514    -0.15100
C722        C  0.64276994  0.65896613  0.85780559    -0.15100
C723        C  0.66314480  0.62726836  0.87152883     0.07000
C724        C  0.64446388  0.59350311  0.88221627    -0.15100
H725        H  0.59018553  0.56843679  0.89573331     0.11000
H726        H  0.58748442  0.68495239  0.85319675     0.11000
H727        H  0.65750026  0.68512307  0.84967342     0.11000
H728        H  0.66053219  0.56914057  0.89309415     0.11000
C729        C  0.44435175  0.88969904  0.39822270    -0.15100
C730        C  0.40857505  0.90780807  0.39746109     0.07000
C731        C  0.37472345  0.88713623  0.40236701    -0.15100
C732        C  0.37641725  0.84736307  0.40217471    -0.15100
C733        C  0.41193862  0.82919732  0.39653890     0.07000
C734        C  0.44608344  0.85014781  0.39794800    -0.15100
H735        H  0.47057223  0.90605232  0.39480661     0.11000
H736        H  0.34707952  0.90143978  0.40180367     0.11000
H737        H  0.34985842  0.83127713  0.40145769     0.11000
H738        H  0.47369989  0.83620833  0.39444844     0.11000
C739        C  0.96435942  0.95811209  0.18969460    -0.15100
C740        C  0.95166738  0.92077818  0.19898188     0.07000
C741        C  0.93488543  0.91522988  0.23529035    -0.15100
C742        C  0.92807796  0.94676770  0.25993080    -0.15100
C743        C  0.93805786  0.98445781  0.24892059     0.07000
C744        C  0.95751790  0.98927351  0.21405790    -0.15100
H745        H  0.97774366  0.96386463  0.16229784     0.11000
H746        H  0.92478585  0.88705124  0.24358867     0.11000
H747        H  0.91172030  0.94217259  0.28589049     0.11000
H748        H  0.96450420  0.01788352  0.20404342     0.11000
C749        C  0.89090917  0.67924548  0.01092782    -0.15100
C750        C  0.85075231  0.68217108  0.01084331     0.07000
C751        C  0.83314558  0.70868328  0.03565440    -0.15100
C752        C  0.85539395  0.73289290  0.05878717    -0.15100
C753        C  0.89566036  0.73085129  0.05773085     0.07000
C754        C  0.91303353  0.70312904  0.03412949    -0.15100
H755        H  0.90537566  0.65904799  0.99234294     0.11000
H756        H  0.80221425  0.71169682  0.03617454     0.11000
H757        H  0.84113039  0.75378636  0.07674382     0.11000
H758        H  0.94397057  0.70048528  0.03272983     0.11000
C759        C  0.88858598  0.91280453  0.01723743    -0.15100
C760        C  0.88274033  0.90481427  0.05632555     0.07000
C761        C  0.85885685  0.92914289  0.07772649    -0.15100
C762        C  0.84464416  0.96310057  0.06127444    -0.15100
C763        C  0.85401574  0.97270743  0.02334921     0.07000
C764        C  0.87457144  0.94664112  0.00098255    -0.15100
H765        H  0.90704869  0.89459087  0.00015930     0.11000
H766        H  0.85451025  0.92401958  0.10801558     0.11000
H767        H  0.82898215  0.98324436  0.07895629     0.11000
H768        H  0.88208856  0.95372460  0.97174530     0.11000
C769        C  0.07614799  0.84078526  0.99121729    -0.15100
C770        C  0.03691136  0.83180738  0.99140115     0.07000
C771        C  0.01812816  0.82497191  0.95659901    -0.15100
C772        C  0.03705698  0.83222402  0.92195861    -0.15100
C773        C  0.07516938  0.84551533  0.92182009     0.07000
C774        C  0.09539612  0.84673234  0.95657903    -0.15100
H775        H  0.09131946  0.84530525  0.01792735     0.11000
H776        H  0.98797841  0.81747760  0.95625101     0.11000
H777        H  0.02059607  0.83198717  0.89561979     0.11000
H778        H  0.12446090  0.85773842  0.95737636     0.11000
C779        C  0.21739095  0.94417389  0.00430833    -0.15100
C780        C  0.25080591  0.92200965  0.00026656     0.07000
C781        C  0.25998951  0.90836625  0.96335554    -0.15100
C782        C  0.23479399  0.91436093  0.93204889    -0.15100
C783        C  0.19971125  0.93384695  0.93716322     0.07000
C784        C  0.19239251  0.95010844  0.97333225    -0.15100
H785        H  0.20882696  0.95409432  0.03240535     0.11000
H786        H  0.28468207  0.88984520  0.95953790     0.11000
H787        H  0.24128697  0.90116792  0.90477734     0.11000
H788        H  0.16587784  0.96553684  0.97839969     0.11000
C789        C  0.29920799  0.92366333  0.22923819    -0.15100
C790        C  0.30773548  0.93450314  0.19124304     0.07000
C791        C  0.32120747  0.97216199  0.18500739    -0.15100
C792        C  0.32880786  0.99688959  0.21629413    -0.15100
C793        C  0.32290788  0.98454417  0.25437692     0.07000
C794        C  0.30679960  0.94808607  0.26009444    -0.15100
H795        H  0.28855600  0.89516810  0.23555324     0.11000
H796        H  0.32821215  0.98160300  0.15629594     0.11000
H797        H  0.34250754  0.02424005  0.21088476     0.11000
H798        H  0.30289128  0.93718985  0.28892229     0.11000
C799        C  0.41163949  0.77564468  0.97404385    -0.15100
C800        C  0.39317477  0.74755590  0.95183794     0.07000
C801        C  0.35289528  0.74559941  0.95250130    -0.15100
C802        C  0.33167542  0.77065053  0.97563757    -0.15100
C803        C  0.35039182  0.79785774  0.99874022     0.07000
C804        C  0.39054112  0.80033646  0.99730267    -0.15100
H805        H  0.44261960  0.77799574  0.97426359     0.11000
H806        H  0.33785086  0.72424999  0.93577605     0.11000
H807        H  0.30074365  0.76782098  0.97646223     0.11000
H808        H  0.40580092  0.82092529  0.01478120     0.11000
C809        C  0.38409151  0.83067460  0.21012210    -0.15100
C810        C  0.38666400  0.80963085  0.17598982     0.07000
C811        C  0.40158220  0.77215281  0.17727790    -0.15100
C812        C  0.41121689  0.75513294  0.21242647    -0.15100
C813        C  0.40438716  0.77481807  0.24675747     0.07000
C814        C  0.39213841  0.81315497  0.24530325    -0.15100
H815        H  0.37164194  0.85919643  0.21003179     0.11000
H816        H  0.40268844  0.75501121  0.15148175     0.11000
H817        H  0.42103252  0.72561946  0.21299324     0.11000
H818        H  0.38734458  0.82903688  0.27149593     0.11000
C819        C  0.14956194  0.81017558  0.15308360    -0.15100
C820        C  0.16880359  0.84464160  0.14636336     0.07000
C821        C  0.14882180  0.87920677  0.14276074    -0.15100
C822        C  0.10906411  0.87838971  0.14021754    -0.15100
C823        C  0.09023596  0.84286343  0.14041470     0.07000
C824        C  0.11003880  0.80923467  0.15002601    -0.15100
H825        H  0.16526093  0.78341138  0.15582578     0.11000
H826        H  0.16395378  0.90582494  0.13738811     0.11000
H827        H  0.09379182  0.90458871  0.13320140     0.11000
H828        H  0.09547238  0.78178458  0.15103706     0.11000
C829        C  0.54869413  0.77197516  0.78908121    -0.15100
C830        C  0.54513240  0.80894058  0.80501109     0.07000
C831        C  0.51160524  0.81720176  0.82589605    -0.15100
C832        C  0.48455391  0.78810530  0.83391330    -0.15100
C833        C  0.49007409  0.75018008  0.82092572     0.07000
C834        C  0.52160394  0.74314841  0.79685822    -0.15100
H835        H  0.57392805  0.76449964  0.77260932     0.11000
H836        H  0.50790766  0.84517782  0.83879816     0.11000
H837        H  0.46163804  0.79422567  0.85394008     0.11000
H838        H  0.52768775  0.71412559  0.78760282     0.11000
C839        C  0.74886426  0.03449302  0.85683230    -0.15100
C840        C  0.74277579  0.03822809  0.89642261     0.07000
C841        C  0.71146110  0.01930787  0.91329992    -0.15100
C842        C  0.68749371  0.99608649  0.89126483    -0.15100
C843        C  0.69418562  0.99163090  0.85189660     0.07000
C844        C  0.72472751  0.01149111  0.83476270    -0.15100
H845        H  0.77280143  0.04864668  0.84301484     0.11000
H846        H  0.70588314  0.02184423  0.94369001     0.11000
H847        H  0.66405497  0.98116677  0.90512837     0.11000
H848        H  0.73075667  0.00822947  0.80452533     0.11000
C849        C  0.72420462  0.82452132  0.89286920    -0.15100
C850        C  0.68405745  0.82298508  0.88807316     0.07000
C851        C  0.66466634  0.78925030  0.89818325    -0.15100
C852        C  0.68547919  0.75613875  0.90751384    -0.15100
C853        C  0.72576964  0.75662846  0.90743433     0.07000
C854        C  0.74502885  0.79139822  0.90223286    -0.15100
H855        H  0.73982807  0.85001261  0.88433809     0.11000
H856        H  0.63399397  0.78694804  0.89364594     0.11000
H857        H  0.67024564  0.72934620  0.91158116     0.11000
H858        H  0.77609694  0.79221025  0.90210830     0.11000
C859        C  0.77600298  0.89341558  0.70105097    -0.15100
C860        C  0.76852405  0.88025747  0.73845897     0.07000
C861        C  0.79631458  0.85868529  0.75769998    -0.15100
C862        C  0.82986796  0.84783717  0.73882475    -0.15100
C863        C  0.83547669  0.85697351  0.69984431     0.07000
C864        C  0.80928303  0.88162146  0.68166289    -0.15100
H865        H  0.75447081  0.90982307  0.68568371     0.11000
H866        H  0.79097070  0.84820985  0.78644262     0.11000
H867        H  0.84957976  0.82868112  0.75348246     0.11000
H868        H  0.81241298  0.88838423  0.65153656     0.11000
C869        C  0.80842171  0.82158326  0.48687626    -0.15100
C870        C  0.77022946  0.80938947  0.49248112     0.07000
C871        C  0.76261301  0.78598018  0.52436529    -0.15100
C872        C  0.79131816  0.77777897  0.55147609    -0.15100
C873        C  0.82871662  0.79285811  0.54776923     0.07000
C874        C  0.83738288  0.81326103  0.51403610    -0.15100
H875        H  0.81498492  0.84107541  0.46357548     0.11000
H876        H  0.73336843  0.77748460  0.53056322     0.11000
H877        H  0.78339252  0.76164226  0.57680288     0.11000
H878        H  0.86571481  0.82531738  0.51004639     0.11000
C879        C  0.54736662  0.78546764  0.46880390    -0.15100
C880        C  0.58305267  0.78424807  0.44976780     0.07000
C881        C  0.59129295  0.75161680  0.42762117    -0.15100
C882        C  0.56303137  0.72334069  0.42132731    -0.15100
C883        C  0.52587413  0.72674564  0.43709968     0.07000
C884        C  0.51931774  0.75712914  0.46265249    -0.15100
H885        H  0.54004490  0.80983274  0.48656524     0.11000
H886        H  0.61836520  0.74950377  0.41259449     0.11000
H887        H  0.56870607  0.70127255  0.40026726     0.11000
H888        H  0.49082273  0.76162543  0.47417970     0.11000
C889        C  0.78527070  0.96106203  0.33178296    -0.15100
C890        C  0.81082482  0.98666165  0.34957883     0.07000
C891        C  0.81157920  0.98861588  0.38969725    -0.15100
C892        C  0.78679651  0.96626912  0.41157899    -0.15100
C893        C  0.76046969  0.94139240  0.39396785     0.07000
C894        C  0.76023850  0.93862546  0.35381794    -0.15100
H895        H  0.78389753  0.95913918  0.30087188     0.11000
H896        H  0.83088158  0.00802674  0.40431141     0.11000
H897        H  0.78793149  0.96900850  0.44244173     0.11000
H898        H  0.74036707  0.91960803  0.33945418     0.11000
C899        C  0.56613144  0.92389520  0.35402458    -0.15100
C900        C  0.59179484  0.94018638  0.38028486     0.07000
C901        C  0.58710010  0.97910692  0.39033439    -0.15100
C902        C  0.55426542  0.99934802  0.37947107    -0.15100
C903        C  0.52650948  0.98170016  0.35672074     0.07000
C904        C  0.53370781  0.94478262  0.34202842    -0.15100
H905        H  0.56862870  0.89390194  0.34637828     0.11000
H906        H  0.60650039  0.99236072  0.41064921     0.11000
H907        H  0.54915224  0.02764516  0.39121273     0.11000
H908        H  0.51219018  0.93057066  0.32473135     0.11000
C909        C  0.68462338  0.84856288  0.60904920    -0.15100
C910        C  0.65105965  0.85397961  0.58779805     0.07000
C911        C  0.61490264  0.85127922  0.60522833    -0.15100
C912        C  0.61262794  0.84958406  0.64485706    -0.15100
C913        C  0.64650722  0.85001492  0.66609642     0.07000
C914        C  0.68229847  0.84652981  0.64843507    -0.15100
H915        H  0.71261431  0.84983907  0.59557157     0.11000
H916        H  0.58879525  0.85517692  0.58878933     0.11000
H917        H  0.58499026  0.85237200  0.65878301     0.11000
H918        H  0.70850776  0.84657387  0.66519908     0.11000
C919        C  0.48909666  0.25597546  0.04679648    -0.15100
C920        C  0.48435279  0.22574041  0.07297055     0.07000
C921        C  0.44774626  0.22085964  0.08959938    -0.15100
C922        C  0.41788814  0.24755228  0.08288047    -0.15100
C923        C  0.42419020  0.27998961  0.05965741     0.07000
C924        C  0.45956037  0.28262444  0.04023644    -0.15100
H925        H  0.51714759  0.26153873  0.03466619     0.11000
H926        H  0.44355942  0.19886435  0.11118380     0.11000
H927        H  0.39114845  0.24454583  0.09834982     0.11000
H928        H  0.46544916  0.30694619  0.02178538     0.11000
C929        C  0.66735342  0.15904439  0.01356398    -0.15100
C930        C  0.67437821  0.18200650  0.04591285     0.07000
C931        C  0.70996664  0.20118278  0.04786622    -0.15100
C932        C  0.73891098  0.19469301  0.02058778    -0.15100
C933        C  0.73345230  0.16875701  0.99032749     0.07000
C934        C  0.69659230  0.15239444  0.98627084    -0.15100
H935        H  0.64048706  0.14370709  0.01101033     0.11000
H936        H  0.71647721  0.21942251  0.07207156     0.11000
H937        H  0.76714522  0.20662007  0.02568137     0.11000
H938        H  0.69176853  0.13091654  0.96442109     0.11000
C939        C  0.49547820  0.09269353  0.20102524    -0.15100
C940        C  0.49542880  0.13295749  0.20224182     0.07000
C941        C  0.46894447  0.15176994  0.22610456    -0.15100
C942        C  0.44416659  0.13082380  0.24943657    -0.15100
C943        C  0.44512394  0.09058633  0.24927009     0.07000
C944        C  0.47045517  0.07168655  0.22425507    -0.15100
H945        H  0.51534726  0.07742394  0.18272066     0.11000
H946        H  0.46795930  0.18279369  0.22752344     0.11000
H947        H  0.42494599  0.14618989  0.26834380     0.11000
H948        H  0.47192822  0.04065287  0.22361317     0.11000
C949        C  0.70714372  0.10573832  0.25286140    -0.15100
C950        C  0.73893737  0.09401969  0.23151196     0.07000
C951        C  0.73486170  0.08766693  0.19198930    -0.15100
C952        C  0.70033438  0.09669353  0.17334818    -0.15100
C953        C  0.66965947  0.11230072  0.19412327     0.07000
C954        C  0.67261612  0.11452616  0.23431043    -0.15100
H955        H  0.70980782  0.11062327  0.28337306     0.11000
H956        H  0.75932717  0.07861191  0.17513460     0.11000
H957        H  0.69924789  0.09579338  0.14235525     0.11000
H958        H  0.64958147  0.12721941  0.25082437     0.11000
C959        C  0.61458725  0.30514546  0.26443585    -0.15100
C960        C  0.60812621  0.26540157  0.26320866     0.07000
C961        C  0.60721341  0.24457657  0.29759065    -0.15100
C962        C  0.61630333  0.26263448  0.33230318    -0.15100
C963        C  0.62523470  0.30202758  0.33334200     0.07000
C964        C  0.62250299  0.32341451  0.29928829    -0.15100
H965        H  0.61507807  0.32175976  0.23816067     0.11000
H966        H  0.60217838  0.21391689  0.29722748     0.11000
H967        H  0.61962695  0.24521387  0.35784201     0.11000
H968        H  0.63069961  0.35339611  0.29892892     0.11000
C969        C  0.70821549  0.45296890  0.25299989    -0.15100
C970        C  0.68665051  0.48660148  0.25831123     0.07000
C971        C  0.67563611  0.49615518  0.29595990    -0.15100
C972        C  0.68312546  0.47093549  0.32689169    -0.15100
C973        C  0.70153762  0.43548654  0.32066514     0.07000
C974        C  0.71565730  0.42793124  0.28362758    -0.15100
H975        H  0.71613649  0.44415794  0.22435130     0.11000
H976        H  0.65772852  0.52110836  0.30083895     0.11000
H977        H  0.67185018  0.47776345  0.35492950     0.11000
H978        H  0.73040432  0.40121597  0.27766706     0.11000
C979        C  0.69134429  0.52658327  0.03274939    -0.15100
C980        C  0.69911223  0.54002988  0.06999267     0.07000
C981        C  0.73476994  0.55781108  0.07656741    -0.15100
C982        C  0.76009955  0.56526713  0.04584602    -0.15100
C983        C  0.75047054  0.55482846  0.00804512     0.07000
C984        C  0.71650659  0.53397386  0.00233068    -0.15100
H985        H  0.66442743  0.51239973  0.02648939     0.11000
H986        H  0.74173830  0.56861295  0.10476517     0.11000
H987        H  0.78523899  0.58275021  0.05102772     0.11000
H988        H  0.70755381  0.52666214  0.97354199     0.11000
C989        C  0.56068662  0.62611134  0.25732896    -0.15100
C990        C  0.55837994  0.58594675  0.25866486     0.07000
C991        C  0.53214580  0.56862665  0.28393454    -0.15100
C992        C  0.50802077  0.59125221  0.30674055    -0.15100
C993        C  0.50989273  0.63148833  0.30464770     0.07000
C994        C  0.53682921  0.64855398  0.28000687    -0.15100
H995        H  0.58055376  0.64037627  0.23818721     0.11000
H996        H  0.52956285  0.53769394  0.28532633     0.11000
H997        H  0.48762334  0.57732294  0.32554498     0.11000
H998        H  0.53923080  0.67945668  0.27776430     0.11000
C999        C  0.52103231  0.62205483  0.08813096    -0.15100
C1000       C  0.56142475  0.62038722  0.08980479     0.07000
C1001       C  0.58267400  0.63486777  0.05890797    -0.15100
C1002       C  0.56390468  0.64596308  0.02509263    -0.15100
C1003       C  0.52378499  0.64324335  0.02214997     0.07000
C1004       C  0.50233200  0.63316688  0.05441951    -0.15100
H1005       H  0.50403319  0.61035172  0.11134358     0.11000
H1006       H  0.61371211  0.63296731  0.05904716     0.11000
H1007       H  0.58083527  0.65364211  0.00023268     0.11000
H1008       H  0.47138986  0.63078117  0.05254955     0.11000
C1009       C  0.64844672  0.38118809  0.12985714    -0.15100
C1010       C  0.61571345  0.40097343  0.11794576     0.07000
C1011       C  0.58476285  0.38201086  0.10108718    -0.15100
C1012       C  0.58428903  0.34235881  0.10096809    -0.15100
C1013       C  0.61511521  0.32239769  0.11709776     0.07000
C1014       C  0.64840032  0.34146757  0.12882211    -0.15100
H1015       H  0.67213122  0.39615631  0.14326158     0.11000
H1016       H  0.55934009  0.39766517  0.09219477     0.11000
H1017       H  0.55851957  0.32743441  0.09205114     0.11000
H1018       H  0.67208495  0.32585863  0.14169537     0.11000
C1019       C  0.45434912  0.48894262  0.13329226    -0.15100
C1020       C  0.48295121  0.46876623  0.15290720     0.07000
C1021       C  0.47608824  0.43065361  0.16438068    -0.15100
C1022       C  0.44266265  0.41159173  0.15246330    -0.15100
C1023       C  0.41584381  0.43072864  0.12925133     0.07000
C1024       C  0.42073719  0.47028522  0.12221937    -0.15100
H1025       H  0.45922767  0.51826030  0.12411294     0.11000
H1026       H  0.49821130  0.41458359  0.17924900     0.11000
H1027       H  0.44002866  0.38104324  0.15761275     0.11000
H1028       H  0.40055159  0.48565718  0.10416200     0.11000
C1029       C  0.51698810  0.28894552  0.68395180    -0.15100
C1030       C  0.50912834  0.25011177  0.69228446     0.07000
C1031       C  0.47438836  0.24167574  0.71089168    -0.15100
C1032       C  0.44667737  0.27026207  0.71703864    -0.15100
C1033       C  0.45287020  0.30844363  0.70510954     0.07000
C1034       C  0.48927272  0.31784250  0.69043858    -0.15100
H1035       H  0.54272181  0.29632607  0.66821599     0.11000
H1036       H  0.46664633  0.21205737  0.71637738     0.11000
H1037       H  0.41923880  0.26182330  0.72890015     0.11000
H1038       H  0.49519773  0.34687293  0.68106556     0.11000
C1039       C  0.57468899  0.06416033  0.73547511    -0.15100
C1040       C  0.55537672  0.05917927  0.70037536     0.07000
C1041       C  0.54100853  0.02229630  0.69199876    -0.15100
C1042       C  0.54867379  0.99081549  0.71595063    -0.15100
C1043       C  0.57041214  0.99508476  0.74950625     0.07000
C1044       C  0.58220525  0.03240175  0.75970933    -0.15100
H1045       H  0.58629213  0.09195853  0.74290375     0.11000
H1046       H  0.52569223  0.01715174  0.66550290     0.11000
H1047       H  0.54018953  0.96243852  0.70663834     0.11000
H1048       H  0.60031374  0.03644689  0.78460739     0.11000
C1049       C  0.65261528  0.24705668  0.56153929    -0.15100
C1050       C  0.61241240  0.25047006  0.56197902     0.07000
C1051       C  0.59505957  0.27920156  0.53942364    -0.15100
C1052       C  0.61696244  0.30226624  0.51520889    -0.15100
C1053       C  0.65687629  0.29754228  0.51312730     0.07000
C1054       C  0.67468919  0.27052780  0.53741316    -0.15100
H1055       H  0.66685817  0.22538770  0.57874485     0.11000
H1056       H  0.56421113  0.28302193  0.53932991     0.11000
H1057       H  0.60243484  0.32313598  0.49726044     0.11000
H1058       H  0.70547344  0.26634329  0.53650564     0.11000
C1059       C  0.62809915  0.07013654  0.52243949    -0.15100
C1060       C  0.62684803  0.07342600  0.56259906     0.07000
C1061       C  0.63946653  0.04244672  0.58511986    -0.15100
C1062       C  0.64948273  0.00758168  0.56785661    -0.15100
C1063       C  0.64779276  0.00359338  0.52790013     0.07000
C1064       C  0.63878833  0.03552675  0.50519239    -0.15100
H1065       H  0.61756174  0.09331185  0.50452567     0.11000
H1066       H  0.63761485  0.04382364  0.61606092     0.11000
H1067       H  0.65664710  0.98313395  0.58573337     0.11000
H1068       H  0.63748588  0.03291970  0.47430997     0.11000
C1069       C  0.49577677  0.14753107  0.45513279    -0.15100
C1070       C  0.47567161  0.14870607  0.48977513     0.07000
C1071       C  0.43555674  0.14488228  0.48942975    -0.15100
C1072       C  0.41616852  0.13607026  0.45540928    -0.15100
C1073       C  0.43685192  0.12986681  0.42154167     0.07000
C1074       C  0.47648326  0.13799301  0.42122338    -0.15100
H1075       H  0.52671200  0.15046144  0.45487379     0.11000
H1076       H  0.41958853  0.14599978  0.51600275     0.11000
H1077       H  0.38595470  0.12895234  0.45678649     0.11000
H1078       H  0.49323417  0.13241068  0.39573227     0.11000
C1079       C  0.24575881  0.06890658  0.46449500    -0.15100
C1080       C  0.25511370  0.05699849  0.50201167     0.07000
C1081       C  0.28870072  0.03527495  0.50721750    -0.15100
C1082       C  0.31380320  0.02835304  0.47662871    -0.15100
C1083       C  0.30637178  0.04320099  0.43976462     0.07000
C1084       C  0.27104140  0.06195283  0.43362357    -0.15100
H1085       H  0.22089186  0.08700825  0.45973939     0.11000
H1086       H  0.29735903  0.02668088  0.53578953     0.11000
H1087       H  0.34046928  0.01341506  0.48249184     0.11000
H1088       H  0.26438634  0.07392480  0.40574969     0.11000
C1089       C  0.18287979  0.00844512  0.68409519    -0.15100
C1090       C  0.19807838  0.04521711  0.69116170     0.07000
C1091       C  0.20697398  0.05481021  0.72935540    -0.15100
C1092       C  0.19818584  0.02998402  0.75969345    -0.15100
C1093       C  0.18070210  0.99437747  0.75305030     0.07000
C1094       C  0.17421244  0.98330912  0.71477434    -0.15100
H1095       H  0.17542205  0.00009635  0.65519354     0.11000
H1096       H  0.21886112  0.08266397  0.73618498     0.11000
H1097       H  0.20251425  0.03985510  0.78877267     0.11000
H1098       H  0.15939073  0.95669760  0.70877673     0.11000
C1099       C  0.17274669  0.20967056  0.47538745    -0.15100
C1100       C  0.15434613  0.18354576  0.50003624     0.07000
C1101       C  0.11411062  0.18235904  0.50059187    -0.15100
C1102       C  0.09268422  0.20712850  0.47755096    -0.15100
C1103       C  0.11093636  0.23393440  0.45354919     0.07000
C1104       C  0.15122027  0.23477191  0.45245578    -0.15100
H1105       H  0.20375593  0.21152769  0.47468215     0.11000
H1106       H  0.09908268  0.16271998  0.51939643     0.11000
H1107       H  0.06168396  0.20578923  0.47922681     0.11000
H1108       H  0.16607151  0.25514759  0.43431868     0.11000
C1109       C  0.11197275  0.21276173  0.67822170    -0.15100
C1110       C  0.12130679  0.17357285  0.67561433     0.07000
C1111       C  0.11790676  0.15035037  0.70834220    -0.15100
C1112       C  0.10959174  0.16683508  0.74387000    -0.15100
C1113       C  0.10325610  0.20647886  0.74682729     0.07000
C1114       C  0.10240239  0.22901544  0.71355290    -0.15100
H1115       H  0.11554830  0.23140015  0.65359999     0.11000
H1116       H  0.12612891  0.12036117  0.70731925     0.11000
H1117       H  0.10977128  0.14896258  0.76931483     0.11000
H1118       H  0.09728929  0.25962793  0.71536397     0.11000
C1119       C  0.39831849  0.09951642  0.63311008    -0.15100
C1120       C  0.41756335  0.13461091  0.63626853     0.07000
C1121       C  0.39834761  0.16764049  0.64847261    -0.15100
C1122       C  0.35887691  0.16685938  0.65190994    -0.15100
C1123       C  0.33916710  0.13326346  0.64282340     0.07000
C1124       C  0.35864056  0.09896187  0.63596291    -0.15100
H1125       H  0.41323649  0.07386076  0.62388547     0.11000
H1126       H  0.41332533  0.19464170  0.65159000     0.11000
H1127       H  0.34349301  0.19347088  0.65711679     0.11000
H1128       H  0.34309949  0.07308944  0.62859477     0.11000
C1129       C  0.33327121  0.29356170  0.60915182    -0.15100
C1130       C  0.31308712  0.32608901  0.62147121     0.07000
C1131       C  0.27270601  0.32623979  0.61862440    -0.15100
C1132       C  0.25275346  0.29270041  0.60931795    -0.15100
C1133       C  0.27306925  0.25896752  0.60171463     0.07000
C1134       C  0.31330026  0.26011250  0.59946167    -0.15100
H1135       H  0.36417895  0.29224370  0.61208990     0.11000
H1136       H  0.25648596  0.35080263  0.62871384     0.11000
H1137       H  0.22175652  0.29229510  0.61113802     0.11000
H1138       H  0.32937513  0.23410473  0.59360964     0.11000
C1139       C  0.08361279  0.41405639  0.27452971    -0.15100
C1140       C  0.06038587  0.41997262  0.30697103     0.07000
C1141       C  0.04345661  0.45650331  0.31148943    -0.15100
C1142       C  0.05178655  0.48687964  0.28628914    -0.15100
C1143       C  0.07695640  0.48180623  0.25535499     0.07000
C1144       C  0.09194914  0.44467328  0.24918568    -0.15100
H1145       H  0.09752443  0.38659592  0.27025599     0.11000
H1146       H  0.02534316  0.46232585  0.33597620     0.11000
H1147       H  0.04095068  0.51527279  0.29281525     0.11000
H1148       H  0.11288335  0.44015845  0.22673050     0.11000
C1149       C  0.01399889  0.65961588  0.18532482    -0.15100
C1150       C  0.04908752  0.66827479  0.20323816     0.07000
C1151       C  0.05375358  0.70544947  0.21841451    -0.15100
C1152       C  0.02619236  0.73419949  0.21220054    -0.15100
C1153       C  0.99316009  0.72687855  0.19037307     0.07000
C1154       C  0.98640882  0.68866597  0.17890649    -0.15100
H1155       H  0.00929489  0.63139174  0.17334821     0.11000
H1156       H  0.08015480  0.71320994  0.23283992     0.11000
H1157       H  0.03311401  0.76339798  0.22022494     0.11000
H1158       H  0.96203177  0.68229134  0.16072415     0.11000
C1159       C  0.22469332  0.46006542  0.17134960    -0.15100
C1160       C  0.20106292  0.48735734  0.15322388     0.07000
C1161       C  0.20059304  0.48928693  0.11304937    -0.15100
C1162       C  0.22335594  0.46452435  0.09145856    -0.15100
C1163       C  0.24724781  0.43746419  0.10958994     0.07000
C1164       C  0.24766298  0.43543584  0.14973570    -0.15100
H1165       H  0.22587614  0.45808560  0.20227886     0.11000
H1166       H  0.18292585  0.51020991  0.09824590     0.11000
H1167       H  0.22272236  0.46705337  0.06054564     0.11000
H1168       H  0.26591943  0.41497937  0.16446623     0.11000
C1169       C  0.23372592  0.65467192  0.12124266    -0.15100
C1170       C  0.19323646  0.65434019  0.11985861     0.07000
C1171       C  0.17420460  0.68580404  0.10339580    -0.15100
C1172       C  0.19487069  0.71898373  0.09378326    -0.15100
C1173       C  0.23458434  0.72102680  0.10080247     0.07000
C1174       C  0.25418128  0.68812392  0.11277154    -0.15100
H1175       H  0.24904292  0.63091974  0.13435352     0.11000
H1176       H  0.14313798  0.68677004  0.10283827     0.11000
H1177       H  0.17931330  0.74433889  0.08455742     0.11000
H1178       H  0.28476124  0.68914704  0.11824881     0.11000
C1179       C  0.29842521  0.62670635  0.25077594    -0.15100
C1180       C  0.27263699  0.60206519  0.26895610     0.07000
C1181       C  0.28160364  0.58749721  0.30553346    -0.15100
C1182       C  0.31438748  0.60033170  0.32516294    -0.15100
C1183       C  0.33860388  0.62755226  0.30809131     0.07000
C1184       C  0.33144173  0.63876010  0.26987773    -0.15100
H1185       H  0.29184651  0.63842731  0.22274756     0.11000
H1186       H  0.26151478  0.56887104  0.32019402     0.11000
H1187       H  0.31868300  0.59189274  0.35472850     0.11000
H1188       H  0.34958890  0.65986871  0.25602994     0.11000
C1189       C  0.26866073  0.69966571  0.48675744    -0.15100
C1190       C  0.27477763  0.67390891  0.51717539     0.07000
C1191       C  0.31203963  0.65835335  0.52138496    -0.15100
C1192       C  0.34126507  0.66594192  0.49436354    -0.15100
C1193       C  0.33388829  0.68904288  0.46205114     0.07000
C1194       C  0.29766452  0.70716700  0.45974790    -0.15100
H1195       H  0.24010681  0.71084011  0.48147464     0.11000
H1196       H  0.31738401  0.63699589  0.54337062     0.11000
H1197       H  0.36859996  0.65139090  0.49723070     0.11000
H1198       H  0.29076963  0.72539484  0.43552306     0.11000
C1199       C  0.08775767  0.73245543  0.58289851    -0.15100
C1200       C  0.08266045  0.70083946  0.55846248     0.07000
C1201       C  0.04781645  0.69843338  0.53795729    -0.15100
C1202       C  0.01760846  0.72426899  0.54457538    -0.15100
C1203       C  0.02110574  0.75354001  0.57185230     0.07000
C1204       C  0.05724392  0.75839140  0.58959325    -0.15100
H1205       H  0.11400330  0.73527142  0.59926743     0.11000
H1206       H  0.04279016  0.67474516  0.51857717     0.11000
H1207       H  0.98996638  0.71863074  0.53154234     0.11000
H1208       H  0.06048425  0.77956532  0.61202664     0.11000
C1209       C  0.25871656  0.54516857  0.65491606    -0.15100
C1210       C  0.25923184  0.54238460  0.61477507     0.07000
C1211       C  0.28410830  0.51587584  0.59743741    -0.15100
C1212       C  0.30716622  0.49196747  0.61955744    -0.15100
C1213       C  0.30607773  0.49388879  0.65966674     0.07000
C1214       C  0.28203279  0.52108443  0.67723341    -0.15100
H1215       H  0.23990365  0.56543908  0.66902294     0.11000
H1216       H  0.28536564  0.51301655  0.56659235     0.11000
H1217       H  0.32537250  0.47139837  0.60507395     0.11000
H1218       H  0.28058399  0.52312524  0.70813202     0.11000
C1219       C  0.08617685  0.50734202  0.61405009    -0.15100
C1220       C  0.09183666  0.54582271  0.62521720     0.07000
C1221       C  0.06702173  0.56171740  0.65254486    -0.15100
C1222       C  0.03461711  0.54094773  0.66477453    -0.15100
C1223       C  0.02651994  0.50454655  0.64925181     0.07000
C1224       C  0.05339742  0.48729327  0.62516326    -0.15100
H1225       H  0.10491643  0.49426925  0.59301304     0.11000
H1226       H  0.07027064  0.59134816  0.66119361     0.11000
H1227       H  0.01390051  0.55485389  0.68324602     0.11000
H1228       H  0.04773274  0.45935497  0.61287425     0.11000
C1229       C  0.18711467  0.63367358  0.39675880    -0.15100
C1230       C  0.15360902  0.63047658  0.41843403     0.07000
C1231       C  0.11740021  0.63165564  0.40078339    -0.15100
C1232       C  0.11503572  0.62978388  0.36113145    -0.15100
C1233       C  0.14890008  0.62722877  0.34007828     0.07000
C1234       C  0.18471777  0.63192645  0.35740292    -0.15100
H1235       H  0.21514455  0.63337728  0.41026687     0.11000
H1236       H  0.09132794  0.62929380  0.41749111     0.11000
H1237       H  0.08735466  0.62635154  0.34740531     0.11000
H1238       H  0.21090181  0.63053863  0.34071462     0.11000
C1239       C  0.14422203  0.48058894  0.43895357    -0.15100
C1240       C  0.14828588  0.48345401  0.47879431     0.07000
C1241       C  0.14481492  0.45044632  0.50152769    -0.15100
C1242       C  0.13399190  0.41559200  0.48482839    -0.15100
C1243       C  0.12790589  0.41309430  0.44508439     0.07000
C1244       C  0.13465922  0.44549492  0.42213959    -0.15100
H1245       H  0.14694900  0.50588172  0.42104093     0.11000
H1246       H  0.14780914  0.45226753  0.53235228     0.11000
H1247       H  0.12757520  0.39131969  0.50317881     0.11000
H1248       H  0.12867146  0.44464914  0.39169473     0.11000
loop_ 
_geom_bond_atom_site_label_1 
_geom_bond_atom_site_label_2 
_geom_bond_distance 
_geom_bond_site_symmetry_2 
_ccdc_geom_bond_type 
O1           C16   1.248       .  A
O1           Al9   1.837       .  S
C2           O12   1.261       .  A
C2            O3   1.289       .  A
C2         C1220   1.482       .  S
O3           Al5   2.008       .  S
O4            C6   1.259       .  A
O4           Al5   1.905       .  S
Al5          O13   1.957       .  S
Al5          O15   2.003       .  S
Al5          O14   1.780       .  S
C6           O19   1.255       .  A
C6         C1210   1.477       .  S
O7           C17   1.250       .  A
O7           Al9   1.899       .  S
O8           C21   1.260       .  A
O8          Al18   1.854       .  S
Al9          O22   1.912       .  S
Al9          O19   1.871       .  S
Al9          O14   1.772       .  S
O10          C17   1.258       .  A
O10         Al18   1.936       .  S
O11          C20   1.255       .  A
O11         Al18   1.902       .  S
O12         Al18   1.836       .  S
O13          C20   1.265       .  A
O14         Al18   1.781       .  S
O15          C16   1.281       .  A
C16        C1190   1.490       .  S
C17        C1240   1.469       .  S
C20        C1200   1.504       .  S
C21          O22   1.274       .  A
C21        C1230   1.440       .  S
O23          C38   1.252       .  A
O23         Al31   1.864       .  S
C24          O34   1.253       .  A
C24          O25   1.280       .  A
C24        C1170   1.473       .  S
O25         Al27   1.998       .  S
O26          C28   1.261       .  A
O26         Al27   1.887       .  S
Al27         O35   1.948       .  S
Al27         O37   2.000       .  S
Al27         O36   1.780       .  S
C28          O41   1.265       .  A
C28        C1160   1.476       .  S
O29          C39   1.256       .  A
O29         Al31   1.897       .  S
O30          C43   1.254       .  A
O30         Al40   1.860       .  S
Al31         O44   1.904       .  S
Al31         O41   1.915       .  S
Al31         O36   1.772       .  S
O32          C39   1.263       .  A
O32         Al40   1.931       .  S
O33          C42   1.264       .  A
O33         Al40   1.920       .  S
O34         Al40   1.835       .  S
O35          C42   1.270       .  A
O36         Al40   1.769       .  S
O37          C38   1.278       .  A
C38        C1143   1.492       .  S
C39        C1180   1.470       .  S
C42        C1150   1.501       .  S
C43          O44   1.267       .  A
C43        C1233   1.428       .  S
O45          C60   1.250       .  A
O45         Al53   1.866       .  S
C46          O56   1.255       .  A
C46          O47   1.275       .  A
C46        C1110   1.468       .  S
O47         Al49   1.981       .  S
O48          C50   1.265       .  A
O48         Al49   1.887       .  S
Al49         O57   1.946       .  S
Al49         O59   1.997       .  S
Al49         O58   1.783       .  S
C50          O63   1.269       .  A
C50        C1100   1.478       .  S
O51          C61   1.253       .  A
O51         Al53   1.891       .  S
O52          C65   1.252       .  A
O52         Al62   1.854       .  S
Al53         O66   1.905       .  S
Al53         O63   1.927       .  S
Al53         O58   1.766       .  S
O54          C61   1.263       .  A
O54         Al62   1.935       .  S
O55          C64   1.271       .  A
O55         Al62   1.936       .  S
O56         Al62   1.869       .  S
O57          C64   1.276       .  A
O58         Al62   1.764       .  S
O59          C60   1.274       .  A
C60        C1080   1.489       .  S
C61        C1133   1.469       .  S
C64        C1090   1.503       .  S
C65          O66   1.267       .  A
C65        C1123   1.427       .  S
O67          C82   1.246       .  A
O67         Al75   1.831       .  S
C68          O78   1.263       .  A
C68          O69   1.284       .  A
C68        C1060   1.472       .  S
O69         Al71   1.991       .  S
O70          C72   1.264       .  A
O70         Al71   1.916       .  S
Al71         O79   1.955       .  S
Al71         O81   1.995       .  S
Al71         O80   1.781       .  S
C72          O85   1.259       .  A
C72        C1050   1.484       .  S
O73          C83   1.252       .  A
O73         Al75   1.903       .  S
O74          C87   1.259       .  A
O74         Al84   1.852       .  S
Al75         O88   1.909       .  S
Al75         O85   1.887       .  S
Al75         O80   1.773       .  S
O76          C83   1.259       .  A
O76         Al84   1.935       .  S
O77          C86   1.260       .  A
O77         Al84   1.917       .  S
O78         Al84   1.861       .  S
O79          C86   1.268       .  A
O80         Al84   1.776       .  S
O81          C82   1.277       .  A
C82        C1030   1.483       .  S
C83        C1070   1.473       .  S
C86        C1040   1.505       .  S
C87          O88   1.272       .  A
C87        C1120   1.438       .  S
O89         C104   1.249       .  A
O89         Al97   1.861       .  S
C90         O100   1.254       .  A
C90          O91   1.278       .  A
C90        C1000   1.473       .  S
O91         Al93   1.991       .  S
O92          C94   1.263       .  A
O92         Al93   1.877       .  S
Al93        O101   1.945       .  S
Al93        O103   1.993       .  S
Al93        O102   1.783       .  S
C94         O107   1.268       .  A
C94         C990   1.477       .  S
O95         C105   1.253       .  A
O95         Al97   1.893       .  S
O96         C109   1.252       .  A
O96        Al106   1.846       .  S
Al97        O110   1.906       .  S
Al97        O107   1.928       .  S
Al97        O102   1.771       .  S
O98         C105   1.261       .  A
O98        Al106   1.926       .  S
O99         C108   1.268       .  A
O99        Al106   1.931       .  S
O100       Al106   1.854       .  S
O101        C108   1.272       .  A
O102       Al106   1.766       .  S
O103        C104   1.273       .  A
C104        C970   1.488       .  S
C105       C1020   1.470       .  S
C108        C980   1.502       .  S
C109        O110   1.267       .  A
C109       C1010   1.425       .  S
O111        C126   1.248       .  A
O111       Al119   1.843       .  S
C112        O122   1.259       .  A
C112        O113   1.283       .  A
C112        C953   1.472       .  S
O113       Al115   1.993       .  S
O114        C116   1.263       .  A
O114       Al115   1.904       .  S
Al115       O123   1.956       .  S
Al115       O125   1.993       .  S
Al115       O124   1.780       .  S
C116        O129   1.260       .  A
C116        C940   1.478       .  S
O117        C127   1.253       .  A
O117       Al119   1.904       .  S
O118        C131   1.256       .  A
O118       Al128   1.847       .  S
Al119       O132   1.908       .  S
Al119       O129   1.891       .  S
Al119       O124   1.770       .  S
O120        C127   1.261       .  A
O120       Al128   1.946       .  S
O121        C130   1.263       .  A
O121       Al128   1.925       .  S
O122       Al128   1.851       .  S
O123        C130   1.269       .  A
O124       Al128   1.777       .  S
O125        C126   1.276       .  A
C126        C920   1.484       .  S
C127        C960   1.477       .  S
C130        C930   1.508       .  S
C131        O132   1.271       .  A
C131       C1013   1.430       .  S
O133        C148   1.248       .  A
O133       Al141   1.838       .  S
C134        O144   1.260       .  A
C134        O135   1.286       .  A
C134        C900   1.478       .  S
O135       Al137   2.000       .  S
O136        C138   1.260       .  A
O136       Al137   1.907       .  S
Al137       O145   1.947       .  S
Al137       O147   1.992       .  S
Al137       O146   1.780       .  S
C138        O151   1.256       .  A
C138        C893   1.480       .  S
O139        C149   1.250       .  A
O139       Al141   1.897       .  S
O140        C153   1.258       .  A
O140       Al150   1.848       .  S
Al141       O154   1.912       .  S
Al141       O151   1.879       .  S
Al141       O146   1.774       .  S
O142        C149   1.260       .  A
O142       Al150   1.941       .  S
O143        C152   1.258       .  A
O143       Al150   1.917       .  S
O144       Al150   1.836       .  S
O145        C152   1.263       .  A
O146       Al150   1.784       .  S
O147        C148   1.278       .  A
C148        C870   1.485       .  S
C149       C1063   1.471   1_565  S
C152        C880   1.505       .  S
C153        O154   1.273       .  A
C153        C910   1.439       .  S
O155        C170   1.253       .  A
O155       Al163   1.869       .  S
C156        O166   1.253       .  A
C156        O157   1.276       .  A
C156        C850   1.467       .  S
O157       Al159   1.984       .  S
O158        C160   1.262       .  A
O158       Al159   1.886       .  S
Al159       O167   1.942       .  S
Al159       O169   1.994       .  S
Al159       O168   1.783       .  S
C160        O173   1.266       .  A
C160        C843   1.473       .  S
O161        C171   1.255       .  A
O161       Al163   1.892       .  S
O162        C175   1.253       .  A
O162       Al172   1.860       .  S
Al163       O176   1.900       .  S
Al163       O173   1.918       .  S
Al163       O168   1.772       .  S
O164        C171   1.264       .  A
O164       Al172   1.937       .  S
O165        C174   1.269       .  A
O165       Al172   1.936       .  S
O166       Al172   1.847       .  S
O167        C174   1.271       .  A
O168       Al172   1.769       .  S
O169        C170   1.275       .  A
C170       C1043   1.490       .  S
C171        C860   1.470       .  S
C174        C830   1.504       .  S
C175        O176   1.266       .  A
C175        C913   1.428       .  S
O177        C192   1.249       .  A
O177       Al185   1.869       .  S
C178        O188   1.254       .  A
C178        O179   1.274       .  A
C178        C810   1.469       .  S
O179       Al181   1.981       .  S
O180        C182   1.267       .  A
O180       Al181   1.890       .  S
Al181       O189   1.954       .  S
Al181       O191   2.000       .  S
Al181       O190   1.788       .  S
C182        O195   1.272       .  A
C182        C803   1.479   1_554  S
O183        C193   1.252       .  A
O183       Al185   1.885       .  S
O184        C197   1.251       .  A
O184       Al194   1.855       .  S
Al185       O198   1.902       .  S
Al185       O195   1.935       .  S
Al185       O190   1.766       .  S
O186        C193   1.263       .  A
O186       Al194   1.935       .  S
O187        C196   1.273       .  A
O187       Al194   1.939       .  S
O188       Al194   1.876       .  S
O189        C196   1.279       .  A
O190       Al194   1.763       .  S
O191        C192   1.273       .  A
C192        C780   1.491       .  S
C193       C1173   1.472       .  S
C196        C790   1.507       .  S
C197        O198   1.266       .  A
C197        C820   1.430       .  S
O199        C214   1.246   1_455  A
O199       Al207   1.828   1_455  S
C200        O210   1.266       .  A
C200        O201   1.284       .  A
C200        C760   1.475       .  S
O201       Al203   1.984       .  S
O202        C204   1.264       .  A
O202       Al203   1.920       .  S
Al203       O211   1.964       .  S
Al203       O213   1.987       .  S
Al203       O212   1.780       .  S
C204        O217   1.258       .  A
C204        C753   1.486       .  S
O205        C215   1.249   1_655  A
O205       Al207   1.896       .  S
O206        C219   1.261       .  A
O206       Al216   1.858   1_455  S
Al207       O220   1.915   1_655  S
Al207       O217   1.884       .  S
Al207       O212   1.771       .  S
O208        C215   1.259       .  A
O208       Al216   1.939   1_455  S
O209        C218   1.259       .  A
O209       Al216   1.912       .  S
O210       Al216   1.863       .  S
O211        C218   1.269       .  A
O212       Al216   1.779       .  S
O213        C214   1.275       .  A
C214       C1153   1.480       .  S
C215        C770   1.472   1_554  S
C218        C740   1.509       .  S
C219        O220   1.273       .  A
C219        C823   1.444       .  S
O221        C236   1.252   1_565  A
O221       Al229   1.866       .  S
C222        O232   1.252       .  A
C222        O223   1.277       .  A
C222       C1073   1.472       .  S
O223       Al225   1.994       .  S
O224        C226   1.265       .  A
O224       Al225   1.890       .  S
Al225       O233   1.945       .  S
Al225       O235   2.005       .  S
Al225       O234   1.782       .  S
C226        O239   1.267       .  A
C226        C943   1.476       .  S
O227        C237   1.256   1_545  A
O227       Al229   1.892   1_545  S
O228        C241   1.252       .  A
O228       Al238   1.859   1_565  S
Al229       O242   1.899       .  S
Al229       O239   1.921   1_565  S
Al229       O234   1.769   1_565  S
O230        C237   1.265   1_545  A
O230       Al238   1.934       .  S
O231        C240   1.270       .  A
O231       Al238   1.935       .  S
O232       Al238   1.855       .  S
O233        C240   1.273       .  A
O234       Al238   1.763       .  S
O235        C236   1.277       .  A
C236        C793   1.494   1_545  S
C237        C903   1.471       .  S
C240       C1083   1.502       .  S
C241        O242   1.265       .  A
C241        C730   1.428       .  S
O243        C258   1.247       .  A
O243       Al251   1.828       .  S
C244        O254   1.263       .  A
C244        O245   1.288       .  A
C244       C1183   1.480       .  S
O245       Al247   2.002       .  S
O246        C248   1.260       .  A
O246       Al247   1.910       .  S
Al247       O255   1.953       .  S
Al247       O257   2.000       .  S
Al247       O256   1.778       .  S
C248        O261   1.255       .  A
C248        C993   1.479       .  S
O249        C259   1.250       .  A
O249       Al251   1.897       .  S
O250        C263   1.260       .  A
O250       Al260   1.853       .  S
Al251       O264   1.912       .  S
Al251       O261   1.872       .  S
Al251       O256   1.773       .  S
O252        C259   1.260       .  A
O252       Al260   1.944       .  S
O253        C262   1.257       .  A
O253       Al260   1.914       .  S
O254       Al260   1.843       .  S
O255        C262   1.264       .  A
O256       Al260   1.780       .  S
O257        C258   1.280       .  A
C258        C883   1.485       .  S
C259        C813   1.474       .  S
C262       C1193   1.509       .  S
C263        O264   1.273       .  A
C263        C733   1.442       .  S
O265        C280   1.246       .  A
O265       Al273   1.842       .  S
C266        O276   1.260       .  A
C266        O267   1.281       .  A
C266        C710   1.472       .  S
O267       Al269   1.987       .  S
O268        C270   1.264       .  A
O268       Al269   1.909       .  S
Al269       O277   1.956       .  S
Al269       O279   2.001       .  S
Al269       O278   1.781       .  S
C270        O283   1.262       .  A
C270        C800   1.482       .  S
O271        C281   1.253       .  A
O271       Al273   1.898       .  S
O272        C285   1.257       .  A
O272       Al282   1.856       .  S
Al273       O286   1.901       .  S
Al273       O283   1.898       .  S
Al273       O278   1.771       .  S
O274        C281   1.260       .  A
O274       Al282   1.932       .  S
O275        C284   1.263       .  A
O275       Al282   1.920       .  S
O276       Al282   1.865       .  S
O277        C284   1.271       .  A
O278       Al282   1.774       .  S
O279        C280   1.277       .  A
C280        C833   1.487       .  S
C281       C1003   1.469   1_556  S
C284        C700   1.505       .  S
C285        O286   1.269       .  A
C285        C720   1.436       .  S
O287        C302   1.249       .  A
O287       Al295   1.855       .  S
C288        O298   1.257       .  A
C288        O289   1.279       .  A
C288        C690   1.472       .  S
O289       Al291   1.988       .  S
O290        C292   1.265       .  A
O290       Al291   1.898       .  S
Al291       O299   1.958       .  S
Al291       O301   1.997       .  S
Al291       O300   1.779       .  S
C292        O305   1.267       .  A
C292        C750   1.484   1_556  S
O293        C303   1.253       .  A
O293       Al295   1.894       .  S
O294        C307   1.253       .  A
O294       Al304   1.854       .  S
Al295       O308   1.913       .  S
Al295       O305   1.925       .  S
Al295       O300   1.768       .  S
O296        C303   1.262       .  A
O296       Al304   1.934       .  S
O297        C306   1.268       .  A
O297       Al304   1.929       .  S
O298       Al304   1.865       .  S
O299        C306   1.275       .  A
O300       Al304   1.767       .  S
O301        C302   1.275       .  A
C302        C983   1.486   1_556  S
C303        C853   1.468       .  S
C306        C680   1.508       .  S
C307        O308   1.269       .  A
C307        C723   1.428       .  S
O309        C324   1.249       .  A
O309       Al317   1.847       .  S
C310        O320   1.258       .  A
C310        O311   1.282       .  A
C310       C1023   1.477       .  S
O311       Al313   1.995       .  S
O312        C314   1.261       .  A
O312       Al313   1.894       .  S
Al313       O321   1.949       .  S
Al313       O323   2.001       .  S
Al313       O322   1.778       .  S
C314        O327   1.260       .  A
C314       C1163   1.475       .  S
O315        C325   1.252   1_554  A
O315       Al317   1.896       .  S
O316        C329   1.256       .  A
O316       Al326   1.853   1_556  S
Al317       O330   1.903   1_554  S
Al317       O327   1.896       .  S
Al317       O322   1.770       .  S
O318        C325   1.261       .  A
O318       Al326   1.939   1_556  S
O319        C328   1.262       .  A
O319       Al326   1.918       .  S
O320       Al326   1.846       .  S
O321        C328   1.268       .  A
O322       Al326   1.776       .  S
O323        C324   1.278       .  A
C324        C660   1.489       .  S
C325        C713   1.469       .  S
C328        C923   1.502       .  S
C329        O330   1.270       .  A
C329        C670   1.436       .  S
O331        C346   1.250       .  A
O331       Al339   1.867       .  S
C332        O342   1.253       .  A
C332        O333   1.278       .  A
C332       C1130   1.471       .  S
O333       Al335   1.994       .  S
O334        C336   1.263       .  A
O334       Al335   1.874       .  S
Al335       O343   1.945       .  S
Al335       O345   1.993       .  S
Al335       O344   1.779       .  S
C336        O349   1.269       .  A
C336       C1213   1.476       .  S
O337        C347   1.255       .  A
O337       Al339   1.895       .  S
O338        C351   1.252       .  A
O338       Al348   1.850       .  S
Al339       O352   1.907       .  S
Al339       O349   1.930       .  S
Al339       O344   1.770       .  S
O340        C347   1.262       .  A
O340       Al348   1.925       .  S
O341        C350   1.268       .  A
O341       Al348   1.932       .  S
O342       Al348   1.849       .  S
O343        C350   1.272       .  A
O344       Al348   1.766       .  S
O345        C346   1.274       .  A
C346        C703   1.490       .  S
C347        C650   1.470       .  S
C350       C1033   1.503       .  S
C351        O352   1.268       .  A
C351        C673   1.425       .  S
O353        C368   1.247       .  A
O353       Al361   1.829       .  S
C354        O364   1.263       .  A
C354        O355   1.286       .  A
C354        C653   1.478       .  S
O355       Al357   1.993       .  S
O356        C358   1.261       .  A
O356       Al357   1.915       .  S
Al357       O365   1.956       .  S
Al357       O367   1.996       .  S
Al357       O366   1.780       .  S
C358        O371   1.255       .  A
C358        C630   1.482   1_455  S
O359        C369   1.250       .  A
O359       Al361   1.894       .  S
O360        C373   1.260       .  A
O360       Al370   1.856       .  S
Al361       O374   1.912       .  S
Al361       O371   1.875       .  S
Al361       O366   1.774       .  S
O362        C369   1.260       .  A
O362       Al370   1.942       .  S
O363        C372   1.257       .  A
O363       Al370   1.910       .  S
O364       Al370   1.845       .  S
O365        C372   1.265       .  A
O366       Al370   1.782       .  S
O367        C368   1.279       .  A
C368        C620   1.483   1_455  S
C369       C1113   1.470       .  S
C372        C663   1.508       .  S
C373        O374   1.272       .  A
C373        C643   1.442       .  S
O375        C390   1.252       .  A
O375       Al383   1.869       .  S
C376        O386   1.253       .  A
C376        O377   1.275       .  A
C376        C773   1.466       .  S
O377       Al379   1.984       .  S
O378        C380   1.266       .  A
O378       Al379   1.894       .  S
Al379       O387   1.948       .  S
Al379       O389   1.992       .  S
Al379       O388   1.786       .  S
C380        O393   1.268       .  A
C380        C603   1.477       .  S
O381        C391   1.255       .  A
O381       Al383   1.892       .  S
O382        C395   1.253       .  A
O382       Al392   1.857   1_545  S
Al383       O396   1.900   1_565  S
Al383       O393   1.921       .  S
Al383       O388   1.769       .  S
O384        C391   1.264       .  A
O384       Al392   1.935       .  S
O385        C394   1.271       .  A
O385       Al392   1.938       .  S
O386       Al392   1.862       .  S
O387        C394   1.275       .  A
O388       Al392   1.763       .  S
O389        C390   1.274       .  A
C390       C1093   1.489       .  S
C391        C610   1.475   1_455  S
C394        C783   1.503       .  S
C395        O396   1.265       .  A
C395        C640   1.429       .  S
O397        C412   1.248       .  A
O397       Al405   1.842       .  S
C398        O408   1.258       .  A
C398        O399   1.283       .  A
C398        C863   1.477       .  S
O399       Al401   1.997       .  S
O400        C402   1.262       .  A
O400       Al401   1.900       .  S
Al401       O409   1.952       .  S
Al401       O411   2.001       .  S
Al401       O410   1.777       .  S
C402        O415   1.260       .  A
C402        C600   1.478   1_655  S
O403        C413   1.254       .  A
O403       Al405   1.899       .  S
O404        C417   1.256       .  A
O404       Al414   1.850       .  S
Al405       O418   1.907       .  S
Al405       O415   1.897       .  S
Al405       O410   1.769       .  S
O406        C413   1.262       .  A
O406       Al414   1.942       .  S
O407        C416   1.262       .  A
O407       Al414   1.921       .  S
O408       Al414   1.841       .  S
O409        C416   1.269       .  A
O410       Al414   1.775       .  S
O411        C412   1.279       .  A
C412       C1203   1.485   1_655  S
C413        C693   1.471       .  S
C416        C873   1.506       .  S
C417        O418   1.270       .  A
C417        C590   1.435       .  S
O419        C434   1.250       .  A
O419       Al427   1.864       .  S
C420        O430   1.253       .  A
C420        O421   1.277       .  A
C420        C580   1.467       .  S
O421       Al423   1.988       .  S
O422        C424   1.264       .  A
O422       Al423   1.883       .  S
Al423       O431   1.947       .  S
Al423       O433   1.994       .  S
Al423       O432   1.785       .  S
C424        O437   1.270       .  A
C424        C633   1.480       .  S
O425        C435   1.254       .  A
O425       Al427   1.894       .  S
O426        C439   1.252       .  A
O426       Al436   1.847       .  S
Al427       O440   1.906       .  S
Al427       O437   1.932       .  S
Al427       O432   1.770       .  S
O428        C435   1.262       .  A
O428       Al436   1.929       .  S
O429        C438   1.270       .  A
O429       Al436   1.938       .  S
O430       Al436   1.857       .  S
O431        C438   1.273       .  A
O432       Al436   1.767       .  S
O433        C434   1.273       .  A
C434        C683   1.493       .  S
C435       C1223   1.476   1_655  S
C438        C570   1.504       .  S
C439        O440   1.268       .  A
C439        C593   1.425       .  S
O441        C456   1.247       .  A
O441       Al449   1.839       .  S
C442        O452   1.260       .  A
C442        O443   1.281       .  A
C442       C1243   1.468       .  S
O443       Al445   1.984       .  S
O444        C446   1.263       .  A
O444       Al445   1.908       .  S
Al445       O453   1.951       .  S
Al445       O455   2.002       .  S
Al445       O454   1.778       .  S
C446        O459   1.260       .  A
C446       C1103   1.480       .  S
O447        C457   1.251   1_455  A
O447       Al449   1.894       .  S
O448        C461   1.257       .  A
O448       Al458   1.852   1_655  S
Al449       O462   1.904   1_455  S
Al449       O459   1.894       .  S
Al449       O454   1.770       .  S
O450        C457   1.262       .  A
O450       Al458   1.942   1_655  S
O451        C460   1.264       .  A
O451       Al458   1.928       .  S
O452       Al458   1.865       .  S
O453        C460   1.271       .  A
O454       Al458   1.775       .  S
O455        C456   1.278       .  A
C456        C550   1.486       .  S
C457        C583   1.469       .  S
C460       C1140   1.506       .  S
C461        O462   1.269       .  A
C461        C560   1.434       .  S
O463        C478   1.249       .  A
O463       Al471   1.861       .  S
C464        O474   1.254       .  A
C464        O465   1.280       .  A
C464        C963   1.475       .  S
O465       Al467   2.001       .  S
O466        C468   1.267       .  A
O466       Al467   1.893       .  S
Al467       O475   1.947       .  S
Al467       O477   2.004       .  S
Al467       O476   1.780       .  S
C468        O481   1.269       .  A
C468       C1053   1.481       .  S
O469        C479   1.254       .  A
O469       Al471   1.893       .  S
O470        C483   1.251       .  A
O470       Al480   1.849       .  S
Al471       O484   1.907       .  S
Al471       O481   1.933       .  S
Al471       O476   1.766       .  S
O472        C479   1.262       .  A
O472       Al480   1.931       .  S
O473        C482   1.270       .  A
O473       Al480   1.935       .  S
O474       Al480   1.864       .  S
O475        C482   1.274       .  A
O476       Al480   1.765       .  S
O477        C478   1.276       .  A
C478        C573   1.490       .  S
C479        C540   1.468       .  S
C482        C973   1.502       .  S
C483        O484   1.267       .  A
C483        C563   1.425       .  S
O485        C500   1.250       .  A
O485       Al493   1.860       .  S
C486        O496   1.254       .  A
C486        O487   1.278       .  A
C486        C543   1.471       .  S
O487       Al489   1.992       .  S
O488        C490   1.262       .  A
O488       Al489   1.881       .  S
Al489       O497   1.940       .  S
Al489       O499   2.005       .  S
Al489       O498   1.777       .  S
C490        O503   1.267       .  A
C490        C890   1.478   1_545  S
O491        C501   1.254       .  A
O491       Al493   1.889       .  S
O492        C505   1.251       .  A
O492       Al502   1.849       .  S
Al493       O506   1.905       .  S
Al493       O503   1.927       .  S
Al493       O498   1.769       .  S
O494        C501   1.265       .  A
O494       Al502   1.946       .  S
O495        C504   1.270       .  A
O495       Al502   1.941       .  S
O496       Al502   1.847       .  S
O497        C504   1.271       .  A
O498       Al502   1.767       .  S
O499        C500   1.277       .  A
C500        C743   1.492   1_545  S
C501        C950   1.470       .  S
C504        C553   1.504       .  S
C505        O506   1.267       .  A
C505        C530   1.422       .  S
O507        C522   1.247   1_554  A
O507       Al515   1.839   1_554  S
C508        O518   1.255       .  A
C508        O509   1.286       .  A
C508        C613   1.484       .  S
O509       Al511   2.015       .  S
O510        C512   1.260       .  A
O510       Al511   1.886       .  S
Al511       O519   1.950       .  S
Al511       O521   2.010       .  S
Al511       O520   1.775       .  S
C512        O525   1.263       .  A
C512        C840   1.477       .  S
O513        C523   1.253   1_556  A
O513       Al515   1.895       .  S
O514        C527   1.254       .  A
O514       Al524   1.838   1_554  S
Al515       O528   1.910   1_556  S
Al515       O525   1.908       .  S
Al515       O520   1.773       .  S
O516        C523   1.261       .  A
O516       Al524   1.929   1_554  S
O517        C526   1.261       .  A
O517       Al524   1.919       .  S
O518       Al524   1.828       .  S
O519        C526   1.267       .  A
O520       Al524   1.775       .  S
O521        C522   1.280       .  A
C522        C933   1.490       .  S
C523        C763   1.466   1_545  S
C526        C623   1.503       .  S
C527        O528   1.271       .  A
C527        C533   1.430       .  S
C529        C530   1.397       .  A
C529        C534   1.380       .  A
C529        H535   1.085       .  S
C530        C531   1.393       .  A
C531        C532   1.384       .  A
C531        H536   1.084       .  S
C532        C533   1.401       .  A
C532        H537   1.084       .  S
C533        C534   1.395       .  A
C534        H538   1.084       .  S
C539        C540   1.397       .  A
C539        C544   1.398       .  A
C539        H545   1.083       .  S
C540        C541   1.406       .  A
C541        C542   1.402       .  A
C541        H546   1.084       .  S
C542        C543   1.402       .  A
C542        H547   1.084       .  S
C543        C544   1.410       .  A
C544        H548   1.084       .  S
C549        C550   1.411       .  A
C549        C554   1.413   1_455  A
C549        H555   1.084       .  S
C550        C551   1.406   1_455  A
C551        C552   1.406       .  A
C551        H556   1.084       .  S
C552        C553   1.410       .  A
C552        H557   1.083       .  S
C553        C554   1.408       .  A
C554        H558   1.083       .  S
C559        C560   1.399       .  A
C559        C564   1.386       .  A
C559        H565   1.083       .  S
C560        C561   1.397       .  A
C561        C562   1.380       .  A
C561        H566   1.084       .  S
C562        C563   1.395       .  A
C562        H567   1.084       .  S
C563        C564   1.395       .  A
C564        H568   1.084       .  S
C569        C570   1.409       .  A
C569        C574   1.415       .  A
C569        H575   1.083       .  S
C570        C571   1.410       .  A
C571        C572   1.403       .  A
C571        H576   1.083       .  S
C572        C573   1.405       .  A
C572        H577   1.083       .  S
C573        C574   1.411       .  A
C574        H578   1.083       .  S
C579        C580   1.409       .  A
C579        C584   1.400       .  A
C579        H585   1.084       .  S
C580        C581   1.403       .  A
C581        C582   1.399       .  A
C581        H586   1.084       .  S
C582        C583   1.403       .  A
C582        H587   1.084       .  S
C583        C584   1.399       .  A
C584        H588   1.083   1_655  S
C589        C590   1.397       .  A
C589        C594   1.381       .  A
C589        H595   1.084       .  S
C590        C591   1.400       .  A
C591        C592   1.386       .  A
C591        H596   1.084       .  S
C592        C593   1.395       .  A
C592        H597   1.084       .  S
C593        C594   1.395       .  A
C594        H598   1.084       .  S
C599        C600   1.404       .  A
C599        C604   1.398       .  A
C599        H605   1.083   1_455  S
C600        C601   1.407       .  A
C601        C602   1.395       .  A
C601        H606   1.083       .  S
C602        C603   1.403       .  A
C602        H607   1.083       .  S
C603        C604   1.407       .  A
C604        H608   1.083       .  S
C609        C610   1.410   1_545  A
C609        C614   1.408       .  A
C609        H615   1.083       .  S
C610        C611   1.395       .  A
C611        C612   1.396       .  A
C611        H616   1.084       .  S
C612        C613   1.414   1_565  A
C612        H617   1.083       .  S
C613        C614   1.402       .  A
C614        H618   1.083       .  S
C619        C620   1.413       .  A
C619        C624   1.412       .  A
C619        H625   1.084       .  S
C620        C621   1.404       .  A
C621        C622   1.406       .  A
C621        H626   1.083   1_655  S
C622        C623   1.411       .  A
C622        H627   1.083       .  S
C623        C624   1.406       .  A
C624        H628   1.083       .  S
C629        C630   1.406       .  A
C629        C634   1.392       .  A
C629        H635   1.083       .  S
C630        C631   1.406   1_655  A
C631        C632   1.404   1_455  A
C631        H636   1.083       .  S
C632        C633   1.408       .  A
C632        H637   1.083       .  S
C633        C634   1.403       .  A
C634        H638   1.083       .  S
C639        C640   1.395       .  A
C639        C644   1.387       .  A
C639        H645   1.084       .  S
C640        C641   1.396       .  A
C641        C642   1.381       .  A
C641        H646   1.085       .  S
C642        C643   1.399       .  A
C642        H647   1.084       .  S
C643        C644   1.402       .  A
C644        H648   1.084       .  S
C649        C650   1.408       .  A
C649        C654   1.406       .  A
C649        H655   1.083       .  S
C650        C651   1.396       .  A
C651        C652   1.394       .  A
C651        H656   1.084       .  S
C652        C653   1.410       .  A
C652        H657   1.084       .  S
C653        C654   1.403       .  A
C654        H658   1.083       .  S
C659        C660   1.405   1_556  A
C659        C664   1.406       .  A
C659        H665   1.083       .  S
C660        C661   1.412       .  A
C661        C662   1.415   1_554  A
C661        H666   1.083       .  S
C662        C663   1.408       .  A
C662        H667   1.082       .  S
C663        C664   1.412       .  A
C664        H668   1.083       .  S
C669        C670   1.397       .  A
C669        C674   1.379       .  A
C669        H675   1.084       .  S
C670        C671   1.401       .  A
C671        C672   1.388       .  A
C671        H676   1.083       .  S
C672        C673   1.395       .  A
C672        H677   1.084       .  S
C673        C674   1.395       .  A
C674        H678   1.085       .  S
C679        C680   1.411       .  A
C679        C684   1.400       .  A
C679        H685   1.083       .  S
C680        C681   1.411       .  A
C681        C682   1.418       .  A
C681        H686   1.082       .  S
C682        C683   1.411       .  A
C682        H687   1.083       .  S
C683        C684   1.404       .  A
C684        H688   1.084       .  S
C689        C690   1.404       .  A
C689        C694   1.401       .  A
C689        H695   1.084       .  S
C690        C691   1.408       .  A
C691        C692   1.400       .  A
C691        H696   1.083       .  S
C692        C693   1.400       .  A
C692        H697   1.084       .  S
C693        C694   1.403       .  A
C694        H698   1.083       .  S
C699        C700   1.409       .  A
C699        C704   1.416       .  A
C699        H705   1.082       .  S
C700        C701   1.411       .  A
C701        C702   1.402       .  A
C701        H706   1.083       .  S
C702        C703   1.403       .  A
C702        H707   1.083       .  S
C703        C704   1.412       .  A
C704        H708   1.084       .  S
C709        C710   1.408       .  A
C709        C714   1.400   1_556  A
C709        H715   1.084   1_556  S
C710        C711   1.403       .  A
C711        C712   1.401       .  A
C711        H716   1.084       .  S
C712        C713   1.403       .  A
C712        H717   1.084       .  S
C713        C714   1.400   1_556  A
C714        H718   1.083       .  S
C719        C720   1.399       .  A
C719        C724   1.387       .  A
C719        H725   1.084       .  S
C720        C721   1.398       .  A
C721        C722   1.381       .  A
C721        H726   1.084       .  S
C722        C723   1.395       .  A
C722        H727   1.084       .  S
C723        C724   1.396       .  A
C724        H728   1.084       .  S
C729        C730   1.397       .  A
C729        C734   1.380       .  A
C729        H735   1.084       .  S
C730        C731   1.394       .  A
C731        C732   1.387       .  A
C731        H736   1.084       .  S
C732        C733   1.404       .  A
C732        H737   1.083       .  S
C733        C734   1.398       .  A
C734        H738   1.084       .  S
C739        C740   1.412       .  A
C739        C744   1.402       .  A
C739        H745   1.083       .  S
C740        C741   1.410       .  A
C741        C742   1.418       .  A
C741        H746   1.083       .  S
C742        C743   1.412       .  A
C742        H747   1.083       .  S
C743        C744   1.404       .  A
C744        H748   1.084   1_565  S
C749        C750   1.403       .  A
C749        C754   1.396       .  A
C749        H755   1.083   1_554  S
C750        C751   1.409       .  A
C751        C752   1.404       .  A
C751        H756   1.083       .  S
C752        C753   1.405       .  A
C752        H757   1.083       .  S
C753        C754   1.408       .  A
C754        H758   1.083       .  S
C759        C760   1.407       .  A
C759        C764   1.394       .  A
C759        H765   1.084       .  S
C760        C761   1.405       .  A
C761        C762   1.403       .  A
C761        H766   1.083       .  S
C762        C763   1.404       .  A
C762        H767   1.083       .  S
C763        C764   1.397       .  A
C764        H768   1.082   1_554  S
C769        C770   1.403       .  A
C769        C774   1.399       .  A
C769        H775   1.084   1_556  S
C770        C771   1.401       .  A
C771        C772   1.401       .  A
C771        H776   1.083   1_455  S
C772        C773   1.407       .  A
C772        H777   1.083       .  S
C773        C774   1.404       .  A
C774        H778   1.084       .  S
C779        C780   1.404       .  A
C779        C784   1.403   1_554  A
C779        H785   1.083       .  S
C780        C781   1.412   1_554  A
C781        C782   1.416       .  A
C781        H786   1.083       .  S
C782        C783   1.409       .  A
C782        H787   1.083       .  S
C783        C784   1.409       .  A
C784        H788   1.083       .  S
C789        C790   1.411       .  A
C789        C794   1.400       .  A
C789        H795   1.083       .  S
C790        C791   1.411       .  A
C791        C792   1.418       .  A
C791        H796   1.083       .  S
C792        C793   1.412       .  A
C792        H797   1.083   1_565  S
C793        C794   1.404       .  A
C794        H798   1.084       .  S
C799        C800   1.407       .  A
C799        C804   1.394       .  A
C799        H805   1.083       .  S
C800        C801   1.406       .  A
C801        C802   1.402       .  A
C801        H806   1.083       .  S
C802        C803   1.407       .  A
C802        H807   1.083       .  S
C803        C804   1.403       .  A
C804        H808   1.083   1_556  S
C809        C810   1.404       .  A
C809        C814   1.398       .  A
C809        H815   1.084       .  S
C810        C811   1.405       .  A
C811        C812   1.402       .  A
C811        H816   1.083       .  S
C812        C813   1.403       .  A
C812        H817   1.083       .  S
C813        C814   1.403       .  A
C814        H818   1.083       .  S
C819        C820   1.396       .  A
C819        C824   1.382       .  A
C819        H825   1.084       .  S
C820        C821   1.396       .  A
C821        C822   1.389       .  A
C821        H826   1.084       .  S
C822        C823   1.402       .  A
C822        H827   1.083       .  S
C823        C824   1.399       .  A
C824        H828   1.084       .  S
C829        C830   1.410       .  A
C829        C834   1.406       .  A
C829        H835   1.083       .  S
C830        C831   1.408       .  A
C831        C832   1.413       .  A
C831        H836   1.083       .  S
C832        C833   1.411       .  A
C832        H837   1.083       .  S
C833        C834   1.406       .  A
C834        H838   1.083       .  S
C839        C840   1.405       .  A
C839        C844   1.396       .  A
C839        H845   1.083       .  S
C840        C841   1.405       .  A
C841        C842   1.396   1_545  A
C841        H846   1.083       .  S
C842        C843   1.404       .  A
C842        H847   1.083       .  S
C843        C844   1.404   1_565  A
C844        H848   1.083       .  S
C849        C850   1.410       .  A
C849        C854   1.400       .  A
C849        H855   1.084       .  S
C850        C851   1.401       .  A
C851        C852   1.399       .  A
C851        H856   1.083       .  S
C852        C853   1.404       .  A
C852        H857   1.084       .  S
C853        C854   1.398       .  A
C854        H858   1.083       .  S
C859        C860   1.408       .  A
C859        C864   1.405       .  A
C859        H865   1.083       .  S
C860        C861   1.395       .  A
C861        C862   1.395       .  A
C861        H866   1.084       .  S
C862        C863   1.411       .  A
C862        H867   1.084       .  S
C863        C864   1.402       .  A
C864        H868   1.083       .  S
C869        C870   1.411       .  A
C869        C874   1.413       .  A
C869        H875   1.083       .  S
C870        C871   1.404       .  A
C871        C872   1.405       .  A
C871        H876   1.084       .  S
C872        C873   1.412       .  A
C872        H877   1.083       .  S
C873        C874   1.408       .  A
C874        H878   1.083       .  S
C879        C880   1.411       .  A
C879        C884   1.407       .  A
C879        H885   1.083       .  S
C880        C881   1.406       .  A
C881        C882   1.412       .  A
C881        H886   1.083       .  S
C882        C883   1.413       .  A
C882        H887   1.084       .  S
C883        C884   1.405       .  A
C884        H888   1.083       .  S
C889        C890   1.407       .  A
C889        C894   1.402       .  A
C889        H895   1.083       .  S
C890        C891   1.403       .  A
C891        C892   1.392       .  A
C891        H896   1.083   1_565  S
C892        C893   1.406       .  A
C892        H897   1.083       .  S
C893        C894   1.406       .  A
C894        H898   1.083       .  S
C899        C900   1.402       .  A
C899        C904   1.406       .  A
C899        H905   1.083       .  S
C900        C901   1.411       .  A
C901        C902   1.395       .  A
C901        H906   1.084       .  S
C902        C903   1.396       .  A
C902        H907   1.084   1_565  S
C903        C904   1.409       .  A
C904        H908   1.084       .  S
C909        C910   1.397       .  A
C909        C914   1.380       .  A
C909        H915   1.084       .  S
C910        C911   1.403       .  A
C911        C912   1.387       .  A
C911        H916   1.083       .  S
C912        C913   1.394       .  A
C912        H917   1.084       .  S
C913        C914   1.397       .  A
C914        H918   1.084       .  S
C919        C920   1.403       .  A
C919        C924   1.403       .  A
C919        H925   1.083       .  S
C920        C921   1.413       .  A
C921        C922   1.413       .  A
C921        H926   1.084       .  S
C922        C923   1.407       .  A
C922        H927   1.083       .  S
C923        C924   1.411       .  A
C924        H928   1.083       .  S
C929        C930   1.408       .  A
C929        C934   1.415   1_554  A
C929        H935   1.083       .  S
C930        C931   1.411       .  A
C931        C932   1.407       .  A
C931        H936   1.083       .  S
C932        C933   1.405   1_554  A
C932        H937   1.083       .  S
C933        C934   1.413       .  A
C934        H938   1.084       .  S
C939        C940   1.404       .  A
C939        C944   1.398       .  A
C939        H945   1.083       .  S
C940        C941   1.407       .  A
C941        C942   1.394       .  A
C941        H946   1.083       .  S
C942        C943   1.403       .  A
C942        H947   1.083       .  S
C943        C944   1.407       .  A
C944        H948   1.083       .  S
C949        C950   1.397       .  A
C949        C954   1.399       .  A
C949        H955   1.083       .  S
C950        C951   1.406       .  A
C951        C952   1.402       .  A
C951        H956   1.084       .  S
C952        C953   1.402       .  A
C952        H957   1.083       .  S
C953        C954   1.409       .  A
C954        H958   1.083       .  S
C959        C960   1.404       .  A
C959        C964   1.402       .  A
C959        H965   1.084       .  S
C960        C961   1.402       .  A
C961        C962   1.404       .  A
C961        H966   1.083       .  S
C962        C963   1.409       .  A
C962        H967   1.083       .  S
C963        C964   1.405       .  A
C964        H968   1.084       .  S
C969        C970   1.404       .  A
C969        C974   1.402       .  A
C969        H975   1.083       .  S
C970        C971   1.411       .  A
C971        C972   1.414       .  A
C971        H976   1.083       .  S
C972        C973   1.409       .  A
C972        H977   1.082       .  S
C973        C974   1.410       .  A
C974        H978   1.083       .  S
C979        C980   1.410       .  A
C979        C984   1.402       .  A
C979        H985   1.083       .  S
C980        C981   1.408       .  A
C981        C982   1.414       .  A
C981        H986   1.083       .  S
C982        C983   1.411       .  A
C982        H987   1.083       .  S
C983        C984   1.404       .  A
C984        H988   1.083   1_554  S
C989        C990   1.403       .  A
C989        C994   1.390       .  A
C989        H995   1.083       .  S
C990        C991   1.407       .  A
C991        C992   1.402       .  A
C991        H996   1.083       .  S
C992        C993   1.405       .  A
C992        H997   1.083       .  S
C993        C994   1.406       .  A
C994        H998   1.083       .  S
C999       C1000   1.410       .  A
C999       C1004   1.398       .  A
C999       H1005   1.084       .  S
C1000      C1001   1.403       .  A
C1001      C1002   1.402       .  A
C1001      H1006   1.084       .  S
C1002      C1003   1.405       .  A
C1002      H1007   1.083       .  S
C1003      C1004   1.397       .  A
C1004      H1008   1.083       .  S
C1009      C1010   1.394       .  A
C1009      C1014   1.385       .  A
C1009      H1015   1.084       .  S
C1010      C1011   1.396       .  A
C1011      C1012   1.382       .  A
C1011      H1016   1.084       .  S
C1012      C1013   1.396       .  A
C1012      H1017   1.084       .  S
C1013      C1014   1.399       .  A
C1014      H1018   1.084       .  S
C1019      C1020   1.396       .  A
C1019      C1024   1.395       .  A
C1019      H1025   1.084       .  S
C1020      C1021   1.407       .  A
C1021      C1022   1.405       .  A
C1021      H1026   1.083       .  S
C1022      C1023   1.403       .  A
C1022      H1027   1.083       .  S
C1023      C1024   1.410       .  A
C1024      H1028   1.084       .  S
C1029      C1030   1.411       .  A
C1029      C1034   1.413       .  A
C1029      H1035   1.083       .  S
C1030      C1031   1.406       .  A
C1031      C1032   1.403       .  A
C1031      H1036   1.084       .  S
C1032      C1033   1.410       .  A
C1032      H1037   1.083       .  S
C1033      C1034   1.407       .  A
C1034      H1038   1.083       .  S
C1039      C1040   1.409       .  A
C1039      C1044   1.415       .  A
C1039      H1045   1.082       .  S
C1040      C1041   1.411       .  A
C1041      C1042   1.403   1_545  A
C1041      H1046   1.083       .  S
C1042      C1043   1.403       .  A
C1042      H1047   1.083       .  S
C1043      C1044   1.411   1_565  A
C1044      H1048   1.083       .  S
C1049      C1050   1.406       .  A
C1049      C1054   1.404       .  A
C1049      H1055   1.083       .  S
C1050      C1051   1.407       .  A
C1051      C1052   1.394       .  A
C1051      H1056   1.083       .  S
C1052      C1053   1.402       .  A
C1052      H1057   1.083       .  S
C1053      C1054   1.408       .  A
C1054      H1058   1.083       .  S
C1059      C1060   1.408       .  A
C1059      C1064   1.400       .  A
C1059      H1065   1.083       .  S
C1060      C1061   1.404       .  A
C1061      C1062   1.402       .  A
C1061      H1066   1.084       .  S
C1062      C1063   1.404       .  A
C1062      H1067   1.083   1_545  S
C1063      C1064   1.400       .  A
C1064      H1068   1.083       .  S
C1069      C1070   1.399       .  A
C1069      C1074   1.402       .  A
C1069      H1075   1.083       .  S
C1070      C1071   1.405       .  A
C1071      C1072   1.401       .  A
C1071      H1076   1.083       .  S
C1072      C1073   1.403       .  A
C1072      H1077   1.083       .  S
C1073      C1074   1.410       .  A
C1074      H1078   1.083       .  S
C1079      C1080   1.411       .  A
C1079      C1084   1.414       .  A
C1079      H1085   1.083       .  S
C1080      C1081   1.404       .  A
C1081      C1082   1.403       .  A
C1081      H1086   1.083       .  S
C1082      C1083   1.410       .  A
C1082      H1087   1.083       .  S
C1083      C1084   1.409       .  A
C1084      H1088   1.083       .  S
C1089      C1090   1.410       .  A
C1089      C1094   1.415   1_545  A
C1089      H1095   1.083       .  S
C1090      C1091   1.410       .  A
C1091      C1092   1.400       .  A
C1091      H1096   1.083       .  S
C1092      C1093   1.403   1_545  A
C1092      H1097   1.084       .  S
C1093      C1094   1.410       .  A
C1094      H1098   1.083       .  S
C1099      C1100   1.407       .  A
C1099      C1104   1.400       .  A
C1099      H1105   1.083       .  S
C1100      C1101   1.403       .  A
C1101      C1102   1.394       .  A
C1101      H1106   1.083       .  S
C1102      C1103   1.407       .  A
C1102      H1107   1.083       .  S
C1103      C1104   1.405       .  A
C1104      H1108   1.083       .  S
C1109      C1110   1.407       .  A
C1109      C1114   1.400       .  A
C1109      H1115   1.083       .  S
C1110      C1111   1.404       .  A
C1111      C1112   1.399       .  A
C1111      H1116   1.084       .  S
C1112      C1113   1.403       .  A
C1112      H1117   1.084       .  S
C1113      C1114   1.401       .  A
C1114      H1118   1.083       .  S
C1119      C1120   1.400       .  A
C1119      C1124   1.387       .  A
C1119      H1125   1.083       .  S
C1120      C1121   1.398       .  A
C1121      C1122   1.381       .  A
C1121      H1126   1.082       .  S
C1122      C1123   1.396       .  A
C1122      H1127   1.086       .  S
C1123      C1124   1.395       .  A
C1124      H1128   1.084       .  S
C1129      C1130   1.402       .  A
C1129      C1134   1.401       .  A
C1129      H1135   1.083       .  S
C1130      C1131   1.411       .  A
C1131      C1132   1.400       .  A
C1131      H1136   1.085       .  S
C1132      C1133   1.397       .  A
C1132      H1137   1.082       .  S
C1133      C1134   1.405       .  A
C1134      H1138   1.085       .  S
C1139      C1140   1.409       .  A
C1139      C1144   1.415       .  A
C1139      H1145   1.083       .  S
C1140      C1141   1.411       .  A
C1141      C1142   1.406       .  A
C1141      H1146   1.083       .  S
C1142      C1143   1.404       .  A
C1142      H1147   1.083       .  S
C1143      C1144   1.412       .  A
C1144      H1148   1.083       .  S
C1149      C1150   1.406       .  A
C1149      C1154   1.412   1_455  A
C1149      H1155   1.083       .  S
C1150      C1151   1.411       .  A
C1151      C1152   1.403       .  A
C1151      H1156   1.083       .  S
C1152      C1153   1.404   1_455  A
C1152      H1157   1.084       .  S
C1153      C1154   1.412       .  A
C1154      H1158   1.084       .  S
C1159      C1160   1.406       .  A
C1159      C1164   1.396       .  A
C1159      H1165   1.083       .  S
C1160      C1161   1.404       .  A
C1161      C1162   1.395       .  A
C1161      H1166   1.083       .  S
C1162      C1163   1.406       .  A
C1162      H1167   1.083       .  S
C1163      C1164   1.404       .  A
C1164      H1168   1.083       .  S
C1169      C1170   1.412       .  A
C1169      C1174   1.399       .  A
C1169      H1175   1.084       .  S
C1170      C1171   1.402       .  A
C1171      C1172   1.403       .  A
C1171      H1176   1.083       .  S
C1172      C1173   1.407       .  A
C1172      H1177   1.084       .  S
C1173      C1174   1.396       .  A
C1174      H1178   1.083       .  S
C1179      C1180   1.396       .  A
C1179      C1184   1.395       .  A
C1179      H1185   1.084       .  S
C1180      C1181   1.408       .  A
C1181      C1182   1.406       .  A
C1181      H1186   1.084       .  S
C1182      C1183   1.403       .  A
C1182      H1187   1.083       .  S
C1183      C1184   1.411       .  A
C1184      H1188   1.084       .  S
C1189      C1190   1.404       .  A
C1189      C1194   1.408       .  A
C1189      H1195   1.083       .  S
C1190      C1191   1.414       .  A
C1191      C1192   1.414       .  A
C1191      H1196   1.083       .  S
C1192      C1193   1.407       .  A
C1192      H1197   1.083       .  S
C1193      C1194   1.413       .  A
C1194      H1198   1.083       .  S
C1199      C1200   1.407       .  A
C1199      C1204   1.414       .  A
C1199      H1205   1.083       .  S
C1200      C1201   1.412       .  A
C1201      C1202   1.404       .  A
C1201      H1206   1.083       .  S
C1202      C1203   1.403       .  A
C1202      H1207   1.083   1_455  S
C1203      C1204   1.413       .  A
C1204      H1208   1.084       .  S
C1209      C1210   1.406       .  A
C1209      C1214   1.401       .  A
C1209      H1215   1.083       .  S
C1210      C1211   1.405       .  A
C1211      C1212   1.389       .  A
C1211      H1216   1.083       .  S
C1212      C1213   1.403       .  A
C1212      H1217   1.083       .  S
C1213      C1214   1.407       .  A
C1214      H1218   1.083       .  S
C1219      C1220   1.412       .  A
C1219      C1224   1.395       .  A
C1219      H1225   1.084       .  S
C1220      C1221   1.403       .  A
C1221      C1222   1.408       .  A
C1221      H1226   1.083       .  S
C1222      C1223   1.410       .  A
C1222      H1227   1.083       .  S
C1223      C1224   1.396       .  A
C1224      H1228   1.083       .  S
C1229      C1230   1.397       .  A
C1229      C1234   1.378       .  A
C1229      H1235   1.084       .  S
C1230      C1231   1.404       .  A
C1231      C1232   1.389       .  A
C1231      H1236   1.083       .  S
C1232      C1233   1.394       .  A
C1232      H1237   1.084       .  S
C1233      C1234   1.396       .  A
C1234      H1238   1.084       .  S
C1239      C1240   1.402       .  A
C1239      C1244   1.399       .  A
C1239      H1245   1.084       .  S
C1240      C1241   1.401       .  A
C1241      C1242   1.401       .  A
C1241      H1246   1.083       .  S
C1242      C1243   1.407       .  A
C1242      H1247   1.083       .  S
C1243      C1244   1.403       .  A
C1244      H1248   1.084       .  S
