geometry optimzed in LAMMPS
_audit_creation_date              2020-11-30 
_audit_creation_method            'lammps2cif' 
_symmetry_space_group_name_H-M    'P1' 
_symmetry_Int_Tables_number       1 
_symmetry_cell_setting            triclinic 
loop_ 
_symmetry_equiv_pos_as_xyz 
  x,y,z 
_cell_length_a                    61.37722531 
_cell_length_b                    61.3978194227476 
_cell_length_c                    61.40567467111803 
_cell_angle_alpha                 90.00373326812509 
_cell_angle_beta                  90.06351703093969 
_cell_angle_gamma                 89.97980796049738 
loop_ 
_atom_site_label 
_atom_site_type_symbol 
_atom_site_fract_x 
_atom_site_fract_y 
_atom_site_fract_z 
_atom_site_charge 
O1          O  0.12686086  0.09118943  0.39328181    -0.72900
O2          O  0.12737515  0.15677952  0.39236593    -0.73900
O3          O  0.09451773  0.12451062  0.39307084    -0.62500
O4          O  0.16004038  0.12369795  0.39253254    -0.70900
O5          O  0.15952760  0.12345925  0.35646568    -0.70500
O6          O  0.09457939  0.12391306  0.35699446    -0.61700
O7          O  0.12701204  0.15613567  0.35632015    -0.74200
O8          O  0.12662548  0.09106699  0.35720770    -0.73000
Cu9        Cu  0.12726704  0.12404452  0.39411934     1.04600
Cu10       Cu  0.12698101  0.12360605  0.35555269     1.04300
C11         C  0.12630896  0.08074802  0.37526088     0.93300
C12         C  0.12687411  0.16685111  0.37414752     0.92400
C13         C  0.08419343  0.12445955  0.37496998     0.84600
C14         C  0.17016790  0.12356802  0.37433673     0.90800
O15         O  0.12613198  0.90652465  0.35416890    -0.72900
O16         O  0.12414210  0.84119372  0.35370358    -0.73900
O17         O  0.09257998  0.87457367  0.35376120    -0.62500
O18         O  0.15786804  0.87275576  0.35392540    -0.70900
O19         O  0.15805570  0.87334700  0.38998221    -0.70500
O20         O  0.09260713  0.87377155  0.38984161    -0.61700
O21         O  0.12493157  0.84111108  0.38978232    -0.74200
O22         O  0.12511088  0.90618871  0.39030381    -0.73000
Cu23       Cu  0.12522111  0.87380687  0.35262650     1.04600
Cu24       Cu  0.12522479  0.87361850  0.39122597     1.04300
C25         C  0.12553913  0.91665279  0.37234806     0.93300
C26         C  0.12405559  0.83081096  0.37173226     0.92400
C27         C  0.08222720  0.87421507  0.37179914     0.84600
C28         C  0.16837035  0.87262342  0.37190126     0.90800
O29         O  0.87628902  0.09277761  0.36073719    -0.72900
O30         O  0.87605212  0.15809912  0.36011774    -0.73900
O31         O  0.90886208  0.12560123  0.35874273    -0.62500
O32         O  0.84351082  0.12519486  0.36221672    -0.70900
O33         O  0.84549848  0.12517344  0.39822554    -0.70500
O34         O  0.91039718  0.12611683  0.39483283    -0.61700
O35         O  0.87739477  0.15852022  0.39617841    -0.74200
O36         O  0.87863031  0.09317003  0.39678149    -0.73000
Cu37       Cu  0.87609995  0.12543081  0.35917796     1.04600
Cu38       Cu  0.87803900  0.12579497  0.39773578     1.04300
C39         C  0.87768894  0.08264285  0.37886380     0.93300
C40         C  0.87667219  0.16868909  0.37802064     0.92400
C41         C  0.91994255  0.12571399  0.37638064     0.84600
C42         C  0.83413827  0.12484860  0.38080503     0.90800
O43         O  0.87793163  0.90778518  0.39381902    -0.72900
O44         O  0.87392670  0.84294500  0.39128677    -0.73900
O45         O  0.90845756  0.87336251  0.39088960    -0.62500
O46         O  0.84335109  0.87752006  0.39408915    -0.70900
O47         O  0.84191111  0.87808505  0.35793157    -0.70500
O48         O  0.90691419  0.87548017  0.35484809    -0.61700
O49         O  0.87279836  0.84428798  0.35521520    -0.74200
O50         O  0.87612749  0.90941171  0.35775764    -0.73000
Cu51       Cu  0.87597959  0.87534191  0.39378029     1.04600
Cu52       Cu  0.87436676  0.87687431  0.35517195     1.04300
C53         C  0.87759517  0.91887550  0.37624231     0.93300
C54         C  0.87278069  0.83330893  0.37288372     0.92400
C55         C  0.91798249  0.87406147  0.37240372     0.84600
C56         C  0.83239828  0.87819091  0.37640956     0.90800
O57         O  0.14679033  0.37326432  0.40451762    -0.72900
O58         O  0.14448045  0.37512243  0.33919203    -0.73900
O59         O  0.14552866  0.40671352  0.37280413    -0.62500
O60         O  0.14550604  0.34131552  0.37082100    -0.70900
O61         O  0.10941705  0.34121536  0.37109836    -0.70500
O62         O  0.10951437  0.40626169  0.37486517    -0.61700
O63         O  0.10843824  0.37557969  0.34039468    -0.74200
O64         O  0.11067222  0.37171994  0.40566212    -0.73000
Cu65       Cu  0.14684347  0.37406357  0.37179444     1.04600
Cu66       Cu  0.10826990  0.37369443  0.37305377     1.04300
C67         C  0.12908781  0.37219243  0.41538252     0.93300
C68         C  0.12610378  0.37584304  0.32940021     0.92400
C69         C  0.12740389  0.41687042  0.37423529     0.84600
C70         C  0.12746975  0.33089187  0.37053296     0.90800
O71         O  0.10562365  0.38211692  0.58859090    -0.72900
O72         O  0.10111259  0.38303874  0.65399423    -0.73900
O73         O  0.10273211  0.41514840  0.62100630    -0.62500
O74         O  0.10380567  0.34999697  0.62162801    -0.70900
O75         O  0.13981663  0.35045783  0.62394618    -0.70500
O76         O  0.13875138  0.41556740  0.62338174    -0.61700
O77         O  0.13715709  0.38327078  0.65614679    -0.74200
O78         O  0.14159526  0.38262485  0.59112394    -0.73000
Cu79       Cu  0.10204991  0.38257214  0.62120950     1.04600
Cu80       Cu  0.14055783  0.38303495  0.62373645     1.04300
C81         C  0.12436220  0.38197316  0.57947295     0.93300
C82         C  0.11853530  0.38325997  0.66542282     0.92400
C83         C  0.12060010  0.42571149  0.62226812     0.84600
C84         C  0.12195650  0.33985665  0.62280105     0.90800
O85         O  0.14301170  0.62582741  0.40544339    -0.72900
O86         O  0.14260207  0.62286391  0.34036237    -0.73900
O87         O  0.14216821  0.65676975  0.37174182    -0.62500
O88         O  0.14341674  0.59174366  0.37444756    -0.70900
O89         O  0.10727247  0.59102290  0.37349766    -0.70500
O90         O  0.10609486  0.65626385  0.37269345    -0.61700
O91         O  0.10650815  0.62314545  0.34045618    -0.74200
O92         O  0.10692993  0.62424084  0.40587070    -0.73000
Cu93       Cu  0.14403718  0.62429896  0.37296275     1.04600
Cu94       Cu  0.10542243  0.62362430  0.37312801     1.04300
C95         C  0.12509451  0.62560356  0.41599284     0.93300
C96         C  0.12452052  0.62265768  0.33003561     0.92400
C97         C  0.12399329  0.66688098  0.37223544     0.84600
C98         C  0.12555276  0.58109453  0.37426576     0.90800
O99         O  0.10746132  0.63222014  0.65447398    -0.72900
O100        O  0.11048035  0.63395561  0.58924941    -0.73900
O101        O  0.10762434  0.60059518  0.62095191    -0.62500
O102        O  0.11012967  0.66560764  0.62243267    -0.70900
O103        O  0.14623318  0.66436481  0.62402205    -0.70500
O104        O  0.14368483  0.59914221  0.62338423    -0.61700
O105        O  0.14653584  0.63186172  0.59081271    -0.74200
O106        O  0.14348648  0.63119972  0.65609600    -0.73000
Cu107      Cu  0.10768043  0.63316399  0.62171865     1.04600
Cu108      Cu  0.14625865  0.63162705  0.62360382     1.04300
C109        C  0.12500729  0.63121682  0.66566933     0.93300
C110        C  0.12894546  0.63303430  0.57971064     0.92400
C111        C  0.12523062  0.58959649  0.62228588     0.84600
C112        C  0.12851440  0.67528662  0.62337589     0.90800
O113        O  0.59391888  0.13719627  0.38106166    -0.72900
O114        O  0.65894407  0.13901141  0.38497349    -0.73900
O115        O  0.62811500  0.13785021  0.35070979    -0.62500
O116        O  0.62414717  0.13835003  0.41570194    -0.70900
O117        O  0.62549399  0.10224116  0.41596928    -0.70500
O118        O  0.62938065  0.10178702  0.35084502    -0.61700
O119        O  0.66014498  0.10294036  0.38532649    -0.74200
O120        O  0.59495081  0.10109353  0.38107563    -0.73000
Cu121      Cu  0.62631694  0.13934449  0.38316196     1.04600
Cu122      Cu  0.62757311  0.10074559  0.38338452     1.04300
C123        C  0.58415439  0.11886450  0.38000535     0.93300
C124        C  0.66990873  0.12132278  0.38538868     0.92400
C125        C  0.62891067  0.11978210  0.34042251     0.84600
C126        C  0.62396263  0.12034613  0.42611934     0.90800
O127        O  0.58957559  0.10905861  0.63309376    -0.72900
O128        O  0.65451010  0.10523378  0.63278149    -0.73900
O129        O  0.62219218  0.10772234  0.66580757    -0.62500
O130        O  0.62147139  0.10702915  0.60048535    -0.70900
O131        O  0.62259113  0.14309321  0.60022281    -0.70500
O132        O  0.62490242  0.14368103  0.66555987    -0.61700
O133        O  0.65660749  0.14127246  0.63142299    -0.74200
O134        O  0.59118146  0.14517547  0.63396951    -0.73000
Cu135      Cu  0.62192331  0.10603234  0.63312417     1.04600
Cu136      Cu  0.62396449  0.14458476  0.63283644     1.04300
C137        C  0.58010174  0.12756118  0.63335922     0.93300
C138        C  0.66585837  0.12259812  0.63147940     0.92400
C139        C  0.62342589  0.12578512  0.67609524     0.84600
C140        C  0.62145852  0.12501158  0.58998866     0.90800
O141        O  0.40981965  0.09856401  0.37524785    -0.72900
O142        O  0.34436162  0.09983439  0.37437424    -0.73900
O143        O  0.37730334  0.09680895  0.34222313    -0.62500
O144        O  0.37659911  0.10150202  0.40742664    -0.70900
O145        O  0.37685711  0.13751328  0.40484641    -0.70500
O146        O  0.37876541  0.13286180  0.33995270    -0.61700
O147        O  0.34536357  0.13577209  0.37140791    -0.74200
O148        O  0.41039557  0.13462051  0.37291942    -0.73000
Cu149      Cu  0.37702979  0.09788872  0.37493125     1.04600
Cu150      Cu  0.37789006  0.13641464  0.37222978     1.04300
C151        C  0.42043386  0.11643394  0.37398896     0.93300
C152        C  0.33448966  0.11809290  0.37261262     0.92400
C153        C  0.37820189  0.11419049  0.33082072     0.84600
C154        C  0.37617256  0.12026207  0.41645115     0.90800
O155        O  0.40514835  0.14523841  0.62521209    -0.72900
O156        O  0.34017261  0.14516539  0.62311678    -0.73900
O157        O  0.37129847  0.14450935  0.65691440    -0.62500
O158        O  0.37350582  0.14521885  0.59120935    -0.70900
O159        O  0.37312690  0.10914107  0.59144202    -0.70500
O160        O  0.37162289  0.10843764  0.65636280    -0.61700
O161        O  0.33965808  0.10912708  0.62320212    -0.74200
O162        O  0.40550208  0.10919247  0.62483610    -0.73000
Cu163      Cu  0.37260298  0.14627667  0.62410763     1.04600
Cu164      Cu  0.37255628  0.10772388  0.62391199     1.04300
C165        C  0.41574628  0.12735667  0.62541979     0.93300
C166        C  0.32949852  0.12734318  0.62309952     0.92400
C167        C  0.37070547  0.12627289  0.66699095     0.84600
C168        C  0.37308267  0.12707953  0.58094668     0.90800
O169        O  0.89577127  0.62876492  0.40808956    -0.72900
O170        O  0.89402754  0.62586680  0.34285725    -0.73900
O171        O  0.89427871  0.65963171  0.37388420    -0.62500
O172        O  0.89564389  0.59453100  0.37671971    -0.70900
O173        O  0.85954940  0.59376978  0.37667321    -0.70500
O174        O  0.85823643  0.65892696  0.37526918    -0.61700
O175        O  0.85795688  0.62570375  0.34365759    -0.74200
O176        O  0.85966849  0.62699827  0.40869444    -0.73000
Cu177      Cu  0.89620226  0.62718847  0.37538868     1.04600
Cu178      Cu  0.85761180  0.62631491  0.37615608     1.04300
C179        C  0.87787616  0.62829059  0.41869744     0.93300
C180        C  0.87572657  0.62562640  0.33289480     0.92400
C181        C  0.87604207  0.66963262  0.37394139     0.84600
C182        C  0.87781829  0.58378618  0.37683027     0.90800
O183        O  0.86094937  0.59512794  0.62348384    -0.72900
O184        O  0.85968809  0.65999650  0.62753372    -0.73900
O185        O  0.86063363  0.62962315  0.59294926    -0.62500
O186        O  0.86040037  0.62557616  0.65848550    -0.70900
O187        O  0.89648304  0.62685439  0.65852370    -0.70500
O188        O  0.89672030  0.62968479  0.59330881    -0.61700
O189        O  0.89574523  0.66092263  0.62728461    -0.74200
O190        O  0.89700851  0.59534411  0.62408917    -0.73000
Cu191      Cu  0.85918579  0.62752878  0.62566316     1.04600
Cu192      Cu  0.89775307  0.62819352  0.62586769     1.04300
C193        C  0.87903593  0.58486728  0.62278884     0.93300
C194        C  0.87741367  0.67085132  0.62763711     0.92400
C195        C  0.87879096  0.63019740  0.58275477     0.84600
C196        C  0.87846912  0.62600824  0.66889039     0.90800
O197        O  0.89278776  0.37651306  0.34532531    -0.72900
O198        O  0.89621575  0.37584732  0.41018760    -0.73900
O199        O  0.89346587  0.34344068  0.37741775    -0.62500
O200        O  0.89506545  0.40888383  0.37785749    -0.70900
O201        O  0.85907017  0.40948426  0.38105084    -0.70500
O202        O  0.85739444  0.34428669  0.37822405    -0.61700
O203        O  0.86011682  0.37526620  0.41208627    -0.74200
O204        O  0.85673084  0.37863493  0.34691816    -0.73000
Cu205      Cu  0.89563227  0.37613536  0.37764374     1.04600
Cu206      Cu  0.85705523  0.37694796  0.37962985     1.04300
C207        C  0.87434631  0.37807274  0.33584060     0.93300
C208        C  0.87874551  0.37515811  0.42141203     0.92400
C209        C  0.87516877  0.33346841  0.37773155     0.84600
C210        C  0.87723530  0.41951368  0.37958794     0.90800
O211        O  0.89200504  0.41028059  0.62722964    -0.72900
O212        O  0.89057097  0.34498922  0.62983376    -0.73900
O213        O  0.89324659  0.37616476  0.59613567    -0.62500
O214        O  0.88963577  0.37906973  0.66109012    -0.70900
O215        O  0.85361200  0.38006858  0.65939984    -0.70500
O216        O  0.85717633  0.37681967  0.59411400    -0.61700
O217        O  0.85455075  0.34575064  0.62812825    -0.74200
O218        O  0.85592983  0.41104297  0.62463256    -0.73000
Cu219      Cu  0.89259110  0.37760820  0.62868686     1.04600
Cu220      Cu  0.85403865  0.37844191  0.62655782     1.04300
C221        C  0.87422920  0.42092775  0.62516554     0.93300
C222        C  0.87234353  0.33495916  0.62910637     0.92400
C223        C  0.87578477  0.37612095  0.58481900     0.84600
C224        C  0.87117886  0.37999013  0.67063727     0.90800
O225        O  0.34395715  0.88719664  0.37078420    -0.72900
O226        O  0.40928736  0.88528273  0.36981174    -0.73900
O227        O  0.37638130  0.88724666  0.33774618    -0.62500
O228        O  0.37734769  0.88509602  0.40287818    -0.70900
O229        O  0.37581554  0.84900076  0.40183291    -0.70500
O230        O  0.37536188  0.85119569  0.33676541    -0.61700
O231        O  0.40833377  0.84924788  0.36893648    -0.74200
O232        O  0.34283323  0.85116959  0.36963294    -0.73000
Cu233      Cu  0.37673718  0.88745788  0.37035882     1.04600
Cu234      Cu  0.37552793  0.84890303  0.36925210     1.04300
C235        C  0.33297885  0.86951368  0.37033287     0.93300
C236        C  0.41921825  0.86699864  0.36913793     0.92400
C237        C  0.37600422  0.86948914  0.32689884     0.84600
C238        C  0.37680144  0.86672857  0.41264458     0.90800
O239        O  0.34464450  0.89474449  0.61742242    -0.72900
O240        O  0.40985032  0.89027174  0.61811031    -0.73900
O241        O  0.37739709  0.89008690  0.58537930    -0.62500
O242        O  0.37708644  0.89484109  0.65054067    -0.70900
O243        O  0.37437357  0.85895254  0.65294298    -0.70500
O244        O  0.37593729  0.85410470  0.58800122    -0.61700
O245        O  0.40782556  0.85437273  0.62139725    -0.74200
O246        O  0.34258443  0.85879053  0.61954919    -0.73000
Cu247      Cu  0.37734523  0.89374526  0.61779416     1.04600
Cu248      Cu  0.37508651  0.85532010  0.62057108     1.04300
C249        C  0.33324238  0.87735999  0.61831320     0.93300
C250        C  0.41918584  0.87172623  0.61970673     0.92400
C251        C  0.37682640  0.87132473  0.57638075     0.84600
C252        C  0.37556345  0.87759863  0.66210534     0.90800
O253        O  0.62591569  0.89343419  0.65698278    -0.72900
O254        O  0.62490641  0.89720162  0.59164334    -0.73900
O255        O  0.59267846  0.89335105  0.62487925    -0.62500
O256        O  0.65826730  0.89699105  0.62394435    -0.70900
O257        O  0.65978235  0.86096991  0.62263601    -0.70500
O258        O  0.59481235  0.85740627  0.62240509    -0.61700
O259        O  0.62742866  0.86122841  0.59001457    -0.74200
O260        O  0.62738778  0.85744233  0.65504170    -0.73000
Cu261      Cu  0.62536399  0.89654176  0.62442758     1.04600
Cu262      Cu  0.62740502  0.85806332  0.62243530     1.04300
C263        C  0.62673106  0.87486679  0.66637877     0.93300
C264        C  0.62631056  0.87968616  0.58047938     0.92400
C265        C  0.58338744  0.87472794  0.62384913     0.84600
C266        C  0.66940977  0.87938926  0.62327620     0.90800
O267        O  0.59215217  0.89088614  0.37161385    -0.72900
O268        O  0.65748051  0.89617851  0.37299666    -0.73900
O269        O  0.62503785  0.89216427  0.33985618    -0.62500
O270        O  0.62430395  0.89521447  0.40510384    -0.70900
O271        O  0.62640978  0.85918932  0.40697947    -0.70500
O272        O  0.62762766  0.85622498  0.34169775    -0.61700
O273        O  0.65959293  0.86019588  0.37520552    -0.74200
O274        O  0.59479058  0.85487097  0.37383660    -0.73000
Cu275      Cu  0.62466656  0.89488917  0.37235438     1.04600
Cu276      Cu  0.62726653  0.85639238  0.37446527     1.04300
C277        C  0.58325002  0.87206469  0.37216790     0.93300
C278        C  0.66885137  0.87881125  0.37472675     0.92400
C279        C  0.62595801  0.87366136  0.33040793     0.84600
C280        C  0.62513319  0.87772139  0.41635838     0.90800
O281        O  0.15914147  0.88269151  0.63912609    -0.72900
O282        O  0.09409094  0.88289751  0.64091300    -0.73900
O283        O  0.12663491  0.84996445  0.64053850    -0.62500
O284        O  0.12682992  0.91539897  0.63925660    -0.70900
O285        O  0.12468928  0.91474100  0.60322777    -0.70500
O286        O  0.12664647  0.84957448  0.60448100    -0.61700
O287        O  0.09296993  0.88091102  0.60481932    -0.74200
O288        O  0.15827974  0.88305545  0.60308047    -0.73000
Cu289      Cu  0.12667624  0.88277103  0.64121177     1.04600
Cu290      Cu  0.12558458  0.88206886  0.60264088     1.04300
C291        C  0.16909529  0.88302432  0.62088874     0.93300
C292        C  0.08326542  0.88159272  0.62320357     0.92400
C293        C  0.12695895  0.83937681  0.62260031     0.84600
C294        C  0.12586521  0.92543135  0.62104629     0.90800
O295        O  0.08975328  0.13213590  0.60180944    -0.72900
O296        O  0.15504158  0.13377474  0.60323492    -0.73900
O297        O  0.12329743  0.10051518  0.60189392    -0.62500
O298        O  0.12154530  0.16568989  0.60314093    -0.70900
O299        O  0.12191478  0.16506373  0.63918686    -0.70500
O300        O  0.12156451  0.09978508  0.63794436    -0.61700
O301        O  0.15446648  0.13210862  0.63925740    -0.74200
O302        O  0.08918790  0.13279301  0.63794790    -0.73000
Cu303      Cu  0.12242818  0.13308185  0.60126984     1.04600
Cu304      Cu  0.12175626  0.13242511  0.63984657     1.04300
C305        C  0.07917465  0.13236342  0.61970670     0.93300
C306        C  0.16514713  0.13280934  0.62141250     0.92400
C307        C  0.12266977  0.08980486  0.61970669     0.84600
C308        C  0.12155204  0.17577192  0.62135459     0.90800
O309        O  0.84054307  0.12413231  0.64580644    -0.72900
O310        O  0.90556286  0.12982012  0.64330195    -0.73900
O311        O  0.87041628  0.15969894  0.64559731    -0.62500
O312        O  0.87617921  0.09473672  0.64367889    -0.70900
O313        O  0.87413715  0.09551797  0.60760095    -0.70500
O314        O  0.86929939  0.16068581  0.60957941    -0.61700
O315        O  0.90414904  0.13043094  0.60725473    -0.74200
O316        O  0.83928123  0.12541179  0.60979373    -0.73000
Cu317      Cu  0.87317644  0.12711794  0.64585800     1.04600
Cu318      Cu  0.87162623  0.12810063  0.60731559     1.04300
C319        C  0.82958471  0.12359720  0.62810064     0.93300
C320        C  0.91520523  0.13053861  0.62488945     0.92400
C321        C  0.86932861  0.17058968  0.62790095     0.84600
C322        C  0.87623043  0.08488339  0.62536432     0.90800
O323        O  0.87736055  0.91097668  0.64642784    -0.72900
O324        O  0.87590358  0.84566086  0.64679692    -0.73900
O325        O  0.90939317  0.87746197  0.64639541    -0.62500
O326        O  0.84379343  0.87906343  0.64661906    -0.70900
O327        O  0.84391270  0.87881272  0.61053895    -0.70500
O328        O  0.90876137  0.87698305  0.61035346    -0.61700
O329        O  0.87544807  0.84537062  0.61073459    -0.74200
O330        O  0.87743472  0.91055914  0.61033873    -0.73000
Cu331      Cu  0.87659826  0.87831140  0.64785439     1.04600
Cu332      Cu  0.87636346  0.87794776  0.60928240     1.04300
C333        C  0.87778128  0.92112369  0.62826848     0.93300
C334        C  0.87554708  0.83513325  0.62885053     0.92400
C335        C  0.91946253  0.87689085  0.62817239     0.84600
C336        C  0.83347990  0.87908432  0.62850956     0.90800
O337        O  0.39668340  0.12314807  0.09229993    -0.72900
O338        O  0.39514506  0.12051497  0.15739494    -0.73900
O339        O  0.39527175  0.08932084  0.12387038    -0.62500
O340        O  0.39621402  0.15482620  0.12642700    -0.70900
O341        O  0.36011964  0.15473948  0.12552287    -0.70500
O342        O  0.35916900  0.08973954  0.12277421    -0.61700
O343        O  0.35905134  0.12074859  0.15675342    -0.74200
O344        O  0.36059668  0.12365844  0.09141229    -0.73000
Cu345      Cu  0.39709276  0.12197513  0.12498411     1.04600
Cu346      Cu  0.35849270  0.12228695  0.12405815     1.04300
C347        C  0.37890277  0.12363768  0.08147761     0.93300
C348        C  0.37693263  0.11986381  0.16740775     0.92400
C349        C  0.37708535  0.07918169  0.12328504     0.84600
C350        C  0.37810934  0.16514394  0.12653930     0.90800
O351        O  0.35295273  0.15878985  0.87418662    -0.72900
O352        O  0.35453293  0.09368556  0.87623267    -0.73900
O353        O  0.35627867  0.12699109  0.90772459    -0.62500
O354        O  0.35141411  0.12519258  0.84259041    -0.70900
O355        O  0.38738900  0.12632818  0.84020710    -0.70500
O356        O  0.39231877  0.12779780  0.90542605    -0.61700
O357        O  0.39055473  0.09437196  0.87320227    -0.74200
O358        O  0.38893226  0.15982112  0.87197114    -0.73000
Cu359      Cu  0.35256685  0.12618893  0.87529428     1.04600
Cu360      Cu  0.39106976  0.12714634  0.87263415     1.04300
C361        C  0.37059612  0.16969553  0.87265335     0.93300
C362        C  0.37273649  0.08371974  0.87487781     0.92400
C363        C  0.37497295  0.12721536  0.91691080     0.84600
C364        C  0.36870906  0.12537877  0.83102622     0.90800
O365        O  0.39257138  0.90958126  0.87063356    -0.72900
O366        O  0.39389879  0.84401508  0.86712410    -0.73900
O367        O  0.39234243  0.87859502  0.83639403    -0.62500
O368        O  0.39459529  0.87530432  0.90149908    -0.70900
O369        O  0.35853091  0.87422631  0.90272071    -0.70500
O370        O  0.35629305  0.87789596  0.83729351    -0.61700
O371        O  0.35784307  0.84348864  0.86797924    -0.74200
O372        O  0.35650609  0.90862107  0.87168256    -0.73000
Cu373      Cu  0.39460411  0.87687565  0.86889508     1.04600
Cu374      Cu  0.35605254  0.87601535  0.86999817     1.04300
C375        C  0.37424548  0.91948037  0.87149450     0.93300
C376        C  0.37598706  0.83335825  0.86679761     0.92400
C377        C  0.37404330  0.87882994  0.82645847     0.84600
C378        C  0.37695951  0.87437871  0.91248016     0.90800
O379        O  0.40024401  0.87182541  0.08747789    -0.72900
O380        O  0.39866865  0.87481943  0.15291411    -0.73900
O381        O  0.40166586  0.84070346  0.12209819    -0.62500
O382        O  0.39735587  0.90590669  0.11864577    -0.70900
O383        O  0.36129215  0.90366081  0.11921664    -0.70500
O384        O  0.36572239  0.83832970  0.12045412    -0.61700
O385        O  0.36275512  0.87156040  0.15205001    -0.74200
O386        O  0.36412486  0.87079016  0.08695615    -0.73000
Cu387      Cu  0.40074742  0.87338408  0.12025437     1.04600
Cu388      Cu  0.36223930  0.87096664  0.11956517     1.04300
C389        C  0.38231565  0.87136685  0.07687195     0.93300
C390        C  0.38043026  0.87336934  0.16286313     0.92400
C391        C  0.38436075  0.82913940  0.12219459     0.84600
C392        C  0.37867075  0.91510332  0.11889433     0.90800
O393        O  0.84020750  0.35949286  0.12951489    -0.72900
O394        O  0.90500203  0.36230502  0.12954230    -0.73900
O395        O  0.87258833  0.36173333  0.16206068    -0.62500
O396        O  0.87244737  0.36064660  0.09658521    -0.70900
O397        O  0.87061802  0.39667285  0.09605776    -0.70500
O398        O  0.87137122  0.39777660  0.16119856    -0.61700
O399        O  0.90373547  0.39839865  0.12826398    -0.74200
O400        O  0.83816470  0.39548117  0.12910749    -0.73000
Cu401      Cu  0.87262877  0.35981027  0.12940743     1.04600
Cu402      Cu  0.87091897  0.39835190  0.12861797     1.04300
C403        C  0.82880534  0.37685933  0.12958737     0.93300
C404        C  0.91467468  0.38068234  0.12906063     0.92400
C405        C  0.87204981  0.38002827  0.17200545     0.84600
C406        C  0.87136579  0.37852166  0.08592912     0.90800
O407        O  0.86774966  0.39435599  0.84563301    -0.72900
O408        O  0.86754341  0.39491729  0.91071110    -0.73900
O409        O  0.90045920  0.39490989  0.87822176    -0.62500
O410        O  0.83485670  0.39367601  0.87849104    -0.70900
O411        O  0.83584436  0.35763212  0.87881762    -0.70500
O412        O  0.90084643  0.35880401  0.87853175    -0.61700
O413        O  0.86865551  0.35880892  0.91132634    -0.74200
O414        O  0.86840784  0.35831677  0.84551883    -0.73000
Cu415      Cu  0.86760794  0.39570516  0.87819199     1.04600
Cu416      Cu  0.86842164  0.35712964  0.87849216     1.04300
C417        C  0.86838409  0.37640602  0.83514362     0.93300
C418        C  0.86809920  0.37707707  0.92134878     0.92400
C419        C  0.91100009  0.37692732  0.87861851     0.84600
C420        C  0.82496679  0.37536155  0.87926621     0.90800
O421        O  0.08851325  0.36022709  0.12317405    -0.72900
O422        O  0.15377851  0.35934706  0.12086657    -0.73900
O423        O  0.12223352  0.36010040  0.15476665    -0.62500
O424        O  0.11996172  0.35921858  0.08963225    -0.70900
O425        O  0.12084062  0.39534689  0.08922214    -0.70500
O426        O  0.12298136  0.39621624  0.15444046    -0.61700
O427        O  0.15414459  0.39547213  0.12076817    -0.74200
O428        O  0.08919302  0.39633086  0.12291673    -0.73000
Cu429      Cu  0.12109504  0.35845112  0.12215029     1.04600
Cu430      Cu  0.12176167  0.39709081  0.12181817     1.04300
C431        C  0.07851598  0.37848091  0.12332241     0.93300
C432        C  0.16427031  0.37732171  0.12034136     0.92400
C433        C  0.12308501  0.37824696  0.16492890     0.84600
C434        C  0.12033278  0.37715363  0.07912425     0.90800
O435        O  0.11957368  0.35755487  0.90495219    -0.72900
O436        O  0.11768875  0.35864218  0.83970566    -0.73900
O437        O  0.15127369  0.35874094  0.87158478    -0.62500
O438        O  0.08584812  0.35747054  0.87323941    -0.70900
O439        O  0.08532767  0.39356979  0.87423255    -0.70500
O440        O  0.15053930  0.39482017  0.87197037    -0.61700
O441        O  0.11673519  0.39469878  0.84043682    -0.74200
O442        O  0.11880928  0.39368653  0.90553374    -0.73000
Cu443      Cu  0.11862143  0.35683099  0.87232611     1.04600
Cu444      Cu  0.11784810  0.39543322  0.87303326     1.04300
C445        C  0.11942491  0.37546471  0.91554012     0.93300
C446        C  0.11689526  0.37687084  0.82969691     0.92400
C447        C  0.16128569  0.37699617  0.87156519     0.84600
C448        C  0.07524907  0.37537051  0.87422623     0.90800
O449        O  0.64191538  0.87107103  0.09113769    -0.72900
O450        O  0.64092476  0.86637555  0.15609140    -0.73900
O451        O  0.64087501  0.83626792  0.12097022    -0.62500
O452        O  0.64200609  0.90142943  0.12623575    -0.70900
O453        O  0.60589225  0.90183274  0.12601874    -0.70500
O454        O  0.60473336  0.83672786  0.12080214    -0.61700
O455        O  0.60484226  0.86695058  0.15579490    -0.74200
O456        O  0.60579319  0.87185945  0.09053588    -0.73000
Cu457      Cu  0.64267149  0.86877124  0.12360765     1.04600
Cu458      Cu  0.60404750  0.86936938  0.12321853     1.04300
C459        C  0.62404156  0.87198282  0.08050844     0.93300
C460        C  0.62280549  0.86609792  0.16630823     0.92400
C461        C  0.62268438  0.82620157  0.12004287     0.84600
C462        C  0.62405065  0.91191370  0.12741054     0.90800
O463        O  0.61196954  0.87076592  0.84069883    -0.72900
O464        O  0.61235035  0.87058146  0.90577875    -0.73900
O465        O  0.61010436  0.90322879  0.87342999    -0.62500
O466        O  0.61421655  0.83839344  0.87307708    -0.70900
O467        O  0.65028457  0.84012601  0.87264797    -0.70500
O468        O  0.64614440  0.90555336  0.87322949    -0.61700
O469        O  0.64839178  0.87276958  0.90589067    -0.74200
O470        O  0.64802271  0.87322805  0.84039819    -0.73000
Cu471      Cu  0.61095802  0.87066850  0.87325491     1.04600
Cu472      Cu  0.64951640  0.87298869  0.87305653     1.04300
C473        C  0.62988567  0.87205215  0.83022424     0.93300
C474        C  0.63032942  0.87171699  0.91620648     0.92400
C475        C  0.62743350  0.91472156  0.87340792     0.84600
C476        C  0.63272983  0.82891390  0.87265937     0.90800
O477        O  0.63981038  0.12341357  0.85078219    -0.72900
O478        O  0.64000106  0.12037030  0.91616992    -0.73900
O479        O  0.64060166  0.08910492  0.88218267    -0.62500
O480        O  0.63908989  0.15440869  0.88511623    -0.70900
O481        O  0.60302794  0.15331073  0.88534730    -0.70500
O482        O  0.60446419  0.08838674  0.88129050    -0.61700
O483        O  0.60392019  0.11881121  0.91592019    -0.74200
O484        O  0.60372921  0.12281836  0.85073887    -0.73000
Cu485      Cu  0.64115965  0.12182943  0.88353669     1.04600
Cu486      Cu  0.60255983  0.12080198  0.88332848     1.04300
C487        C  0.62175084  0.12379096  0.84038006     0.93300
C488        C  0.62192705  0.11913404  0.92639494     0.92400
C489        C  0.62273042  0.07844792  0.88129431     0.84600
C490        C  0.62074107  0.16421829  0.88586181     0.90800
O491        O  0.60143404  0.11924203  0.16692924    -0.72900
O492        O  0.59944143  0.11826601  0.10150153    -0.73900
O493        O  0.60126571  0.08582509  0.13461099    -0.62500
O494        O  0.59985866  0.15157252  0.13390012    -0.70900
O495        O  0.63589326  0.15173850  0.13255199    -0.70500
O496        O  0.63737657  0.08682430  0.13435558    -0.61700
O497        O  0.63554795  0.11822841  0.10084581    -0.74200
O498        O  0.63749888  0.12019397  0.16577238    -0.73000
Cu499      Cu  0.59918246  0.11869059  0.13426464     1.04600
Cu500      Cu  0.63776626  0.11928535  0.13331625     1.04300
C501        C  0.61981561  0.12002914  0.17670165     0.93300
C502        C  0.61729880  0.11793014  0.09082203     0.92400
C503        C  0.61965746  0.07598362  0.13480357     0.84600
C504        C  0.61785802  0.16206800  0.13323981     0.90800
O505        O  0.12881138  0.64310374  0.15602009    -0.72900
O506        O  0.13063159  0.64301404  0.09063674    -0.73900
O507        O  0.09718673  0.64380495  0.12271986    -0.62500
O508        O  0.16226207  0.64244470  0.12440202    -0.70900
O509        O  0.16158387  0.60640979  0.12559183    -0.70500
O510        O  0.09638342  0.60768751  0.12074364    -0.61700
O511        O  0.13128711  0.60694850  0.09062663    -0.74200
O512        O  0.12624413  0.60703223  0.15570335    -0.73000
Cu513      Cu  0.12976916  0.64435245  0.12339259     1.04600
Cu514      Cu  0.12889205  0.60575364  0.12314993     1.04300
C515        C  0.12672746  0.62503806  0.16611824     0.93300
C516        C  0.13134205  0.62497960  0.08023950     0.92400
C517        C  0.08652743  0.62598566  0.12162176     0.84600
C518        C  0.17230882  0.62425649  0.12556669     0.90800
O519        O  0.12588247  0.60741503  0.83996021    -0.72900
O520        O  0.12825877  0.60624948  0.90521140    -0.73900
O521        O  0.09457939  0.60765814  0.87372137    -0.62500
O522        O  0.15983888  0.60630146  0.87155638    -0.70900
O523        O  0.16027150  0.64237852  0.87187163    -0.70500
O524        O  0.09532314  0.64371072  0.87453293    -0.61700
O525        O  0.12954293  0.64236277  0.90579867    -0.74200
O526        O  0.12646758  0.64350085  0.84045349    -0.73000
Cu527      Cu  0.12712247  0.60564325  0.87256727     1.04600
Cu528      Cu  0.12791228  0.64423479  0.87316522     1.04300
C529        C  0.12562487  0.62559598  0.82984798     0.93300
C530        C  0.12948827  0.62411063  0.91580716     0.92400
C531        C  0.08457742  0.62589426  0.87452809     0.84600
C532        C  0.17041491  0.62424059  0.87165231     0.90800
O533        O  0.87627973  0.64566360  0.90930318    -0.72900
O534        O  0.87704836  0.64626507  0.84387495    -0.73900
O535        O  0.84419031  0.64549017  0.87642478    -0.62500
O536        O  0.90948338  0.64667885  0.87724780    -0.70900
O537        O  0.91015965  0.61056565  0.87570644    -0.70500
O538        O  0.84476675  0.60938108  0.87648304    -0.61700
O539        O  0.87713679  0.61018829  0.84361159    -0.74200
O540        O  0.87807704  0.60954290  0.90879239    -0.73000
Cu541      Cu  0.87674371  0.64728826  0.87670267     1.04600
Cu542      Cu  0.87754665  0.60866332  0.87615028     1.04300
C543        C  0.87723457  0.62746014  0.91932491     0.93300
C544        C  0.87702173  0.62828371  0.83334727     0.92400
C545        C  0.83412447  0.62729447  0.87655331     0.84600
C546        C  0.92013269  0.62881215  0.87652470     0.90800
O547        O  0.84674609  0.64514236  0.12601585    -0.72900
O548        O  0.91205200  0.64535392  0.12687654    -0.73900
O549        O  0.87978597  0.64581878  0.09403411    -0.62500
O550        O  0.87892352  0.64472367  0.15897150    -0.70900
O551        O  0.87909907  0.60865895  0.15869973    -0.70500
O552        O  0.87994610  0.60975860  0.09352905    -0.61700
O553        O  0.91231597  0.60929544  0.12651142    -0.74200
O554        O  0.84688942  0.60907407  0.12568255    -0.73000
Cu555      Cu  0.87939867  0.64649186  0.12652606     1.04600
Cu556      Cu  0.87959391  0.60792747  0.12609815     1.04300
C557        C  0.83642130  0.62708232  0.12561931     0.93300
C558        C  0.92258732  0.62740826  0.12662318     0.92400
C559        C  0.87988181  0.62795459  0.08341147     0.84600
C560        C  0.87871387  0.62662395  0.16919463     0.90800
O561        O  0.37049891  0.33876015  0.10613867    -0.72900
O562        O  0.37231921  0.40388376  0.10183238    -0.73900
O563        O  0.40390571  0.37047973  0.10449559    -0.62500
O564        O  0.33889562  0.37235097  0.10335411    -0.70900
O565        O  0.33827976  0.37502925  0.13929872    -0.70500
O566        O  0.40372902  0.37152452  0.14057834    -0.61700
O567        O  0.37302283  0.40576684  0.13792140    -0.74200
O568        O  0.36944258  0.34057582  0.14211980    -0.73000
Cu569      Cu  0.37138214  0.37123727  0.10273905     1.04600
Cu570      Cu  0.37102894  0.37329024  0.14126379     1.04300
C571        C  0.36989979  0.32926519  0.12464970     0.93300
C572        C  0.37339637  0.41509311  0.11931472     0.92400
C573        C  0.41417515  0.37087951  0.12258764     0.84600
C574        C  0.32820675  0.37431486  0.12105484     0.90800
O575        O  0.38268310  0.65587509  0.11074221    -0.72900
O576        O  0.37599489  0.59123188  0.10537928    -0.73900
O577        O  0.34665517  0.62679711  0.10895762    -0.62500
O578        O  0.41167763  0.62000322  0.10742835    -0.70900
O579        O  0.41219884  0.61844998  0.14352620    -0.70500
O580        O  0.34715796  0.62298562  0.14486198    -0.61700
O581        O  0.37732231  0.58824075  0.14129210    -0.74200
O582        O  0.38213401  0.65355199  0.14673841    -0.73000
Cu583      Cu  0.37919252  0.62363202  0.10690032     1.04600
Cu584      Cu  0.37969627  0.62072890  0.14537626     1.04300
C585        C  0.38346366  0.66504746  0.12941313     0.93300
C586        C  0.37605248  0.57938596  0.12245842     0.92400
C587        C  0.33658006  0.62551287  0.12712055     0.84600
C588        C  0.42219797  0.61814286  0.12529619     0.90800
O589        O  0.59647417  0.61814683  0.13953078    -0.72900
O590        O  0.66171479  0.62281485  0.13991324    -0.73900
O591        O  0.62694356  0.65272652  0.13771345    -0.62500
O592        O  0.63128735  0.58811176  0.14215526    -0.70900
O593        O  0.63123717  0.58539753  0.10615966    -0.70500
O594        O  0.62768219  0.65106129  0.10169289    -0.61700
O595        O  0.66201803  0.61977793  0.10391055    -0.74200
O596        O  0.59665114  0.61661971  0.10345189    -0.73000
Cu597      Cu  0.62907842  0.62053210  0.14102396     1.04600
Cu598      Cu  0.62938891  0.61812027  0.10249803     1.04300
C599        C  0.58621702  0.61684574  0.12144776     0.93300
C600        C  0.67218268  0.62184793  0.12195794     0.92400
C601        C  0.62691064  0.66227003  0.11926018     0.84600
C602        C  0.63189249  0.57643287  0.12498383     0.90800
O603        O  0.62368859  0.40215453  0.11036275    -0.72900
O604        O  0.62165458  0.33660061  0.10992774    -0.73900
O605        O  0.58984444  0.37036194  0.10844580    -0.62500
O606        O  0.65521477  0.36834161  0.11157358    -0.70900
O607        O  0.65361134  0.36847207  0.14767468    -0.70500
O608        O  0.58841446  0.37104645  0.14450824    -0.61700
O609        O  0.61968559  0.33693126  0.14595197    -0.74200
O610        O  0.62259474  0.40209355  0.14645036    -0.73000
Cu611      Cu  0.62262857  0.36935718  0.10879596     1.04600
Cu612      Cu  0.62097388  0.36956946  0.14736941     1.04300
C613        C  0.62383710  0.41246354  0.12847641     0.93300
C614        C  0.62041019  0.32637923  0.12802090     0.92400
C615        C  0.57877680  0.37120996  0.12604842     0.84600
C616        C  0.66472066  0.36844037  0.13009879     0.90800
O617        O  0.34426377  0.62619341  0.89085802    -0.72900
O618        O  0.40917017  0.62900537  0.89187657    -0.73900
O619        O  0.37500613  0.66035377  0.88885666    -0.62500
O620        O  0.37792143  0.59496728  0.89348033    -0.70900
O621        O  0.37883578  0.59282272  0.85745008    -0.70500
O622        O  0.37585978  0.65774396  0.85283019    -0.61700
O623        O  0.40981185  0.62691790  0.85581419    -0.74200
O624        O  0.34464562  0.62378382  0.85486747    -0.73000
Cu625      Cu  0.37659480  0.62773007  0.89253262     1.04600
Cu626      Cu  0.37730726  0.62521826  0.85399664     1.04300
C627        C  0.33410848  0.62450465  0.87280555     0.93300
C628        C  0.41979336  0.62846273  0.87401424     0.92400
C629        C  0.37488971  0.66933908  0.87005714     0.84600
C630        C  0.37872013  0.58356045  0.87607697     0.90800
O631        O  0.62761248  0.65413144  0.85687301    -0.72900
O632        O  0.62599783  0.58874434  0.85785422    -0.73900
O633        O  0.59407389  0.62237320  0.85743984    -0.62500
O634        O  0.65930484  0.62097700  0.85730778    -0.70900
O635        O  0.65951542  0.62100874  0.89335582    -0.70500
O636        O  0.59422577  0.62375156  0.89352096    -0.61700
O637        O  0.62519963  0.58935954  0.89395464    -0.74200
O638        O  0.62826393  0.65465853  0.89292797    -0.73000
Cu639      Cu  0.62672559  0.62146340  0.85612459     1.04600
Cu640      Cu  0.62680852  0.62212498  0.89469967     1.04300
C641        C  0.62844440  0.66476797  0.87474940     0.93300
C642        C  0.62508707  0.57870436  0.87606435     0.92400
C643        C  0.58382824  0.62379752  0.87549164     0.84600
C644        C  0.66981391  0.62131684  0.87526411     0.90800
O645        O  0.65127301  0.36981809  0.86402021    -0.72900
O646        O  0.58611534  0.37004139  0.86154122    -0.73900
O647        O  0.61895159  0.40282095  0.86131201    -0.62500
O648        O  0.61833709  0.33758354  0.86411699    -0.70900
O649        O  0.61692121  0.33901698  0.90012102    -0.70500
O650        O  0.61829064  0.40436431  0.89734460    -0.61700
O651        O  0.58511701  0.37194482  0.89755407    -0.74200
O652        O  0.65020628  0.37109071  0.90005078    -0.73000
Cu653      Cu  0.61872838  0.37006559  0.86149677     1.04600
Cu654      Cu  0.61758462  0.37170675  0.90001513     1.04300
C655        C  0.66110842  0.37018011  0.88236828     0.93300
C656        C  0.57526811  0.37060583  0.87927566     0.92400
C657        C  0.61885344  0.41398380  0.87888028     0.84600
C658        C  0.61731702  0.32792711  0.88250590     0.90800
O659        O  0.37094185  0.40894257  0.89344290    -0.72900
O660        O  0.36718376  0.34381413  0.89237482    -0.73900
O661        O  0.40140491  0.37419351  0.89285459    -0.62500
O662        O  0.33620114  0.37804090  0.89276257    -0.70900
O663        O  0.33622934  0.37819239  0.85670051    -0.70500
O664        O  0.40131755  0.37559117  0.85675716    -0.61700
O665        O  0.36771889  0.34437992  0.85631750    -0.74200
O666        O  0.37015121  0.40957370  0.85734811    -0.73000
Cu667      Cu  0.36887937  0.37629483  0.89412598     1.04600
Cu668      Cu  0.36881411  0.37700077  0.85553732     1.04300
C669        C  0.37124083  0.41958331  0.87555843     0.93300
C670        C  0.36732211  0.33372125  0.87419511     0.92400
C671        C  0.41163985  0.37404446  0.87474800     0.84600
C672        C  0.32581909  0.37831786  0.87470462     0.90800
C673        C  0.51576212  0.37330397  0.89579617    -0.27600
C674        C  0.50533264  0.36651908  0.87663239     0.02000
C675        C  0.51804853  0.36060544  0.85848071     0.30100
C676        C  0.54075020  0.36225534  0.85947710    -0.19400
C677        C  0.55120576  0.36926946  0.87862399    -0.28800
C678        C  0.53843579  0.37447167  0.89700090     0.44100
C679        C  0.48123143  0.36697117  0.87549816     0.05300
O680        O  0.50846749  0.35318853  0.83969777    -0.57300
H681        H  0.55018775  0.35776384  0.84526850     0.18300
O682        O  0.54784719  0.38089355  0.91622395    -0.64000
H683        H  0.50628384  0.37825875  0.90981298     0.16700
C684        C  0.46839446  0.35782728  0.89216371     0.29000
C685        C  0.44574865  0.36035023  0.89173174    -0.24900
C686        C  0.43553887  0.37162684  0.87465383    -0.24200
C687        C  0.44832036  0.38006589  0.85758170     0.40400
C688        C  0.47097741  0.37797191  0.85826747    -0.26700
O689        O  0.47780849  0.34580422  0.90851311    -0.58500
H690        H  0.43613167  0.35322408  0.90469089     0.16000
O691        O  0.43895659  0.39129695  0.84068144    -0.60000
H692        H  0.48059849  0.38544898  0.84551711     0.14500
H693        H  0.54840016  0.39702148  0.91549614     0.46300
H694        H  0.47597181  0.35455857  0.92195356     0.41700
H695        H  0.43758342  0.38054196  0.82869922     0.45200
H696        H  0.50628353  0.33735527  0.84203041     0.36700
C697        C  0.61532818  0.47257127  0.85856466    -0.27600
C698        C  0.62182628  0.48427809  0.87711607     0.02000
C699        C  0.62731251  0.47270670  0.89617356     0.30100
C700        C  0.62603244  0.44994147  0.89654846    -0.19400
C701        C  0.61965009  0.43816473  0.87797009    -0.28800
C702        C  0.61428049  0.44976865  0.85883319     0.44100
C703        C  0.62256666  0.50850802  0.87656349     0.05300
O704        O  0.63421102  0.48348000  0.91449288    -0.57300
H705        H  0.63041658  0.44147031  0.91139697     0.18300
O706        O  0.60779549  0.43907802  0.84031770    -0.64000
H707        H  0.61072423  0.48115665  0.84385321     0.16700
C708        C  0.63399750  0.51971515  0.86011493     0.29000
C709        C  0.63454889  0.54255226  0.86006359    -0.24900
C710        C  0.62395420  0.55460193  0.87635940    -0.24200
C711        C  0.61234460  0.54339522  0.89268339     0.40400
C712        C  0.61168658  0.52058898  0.89266133    -0.26700
O713        O  0.64556367  0.50847061  0.84465511    -0.58500
H714        H  0.64368671  0.55085353  0.84746416     0.16000
O715        O  0.60129735  0.55455199  0.90856677    -0.60000
H716        H  0.60246466  0.51229287  0.90520054     0.14500
H717        H  0.59174302  0.43770728  0.84160534     0.46300
H718        H  0.63710868  0.51005355  0.83099137     0.41700
H719        H  0.58662290  0.55732633  0.90236706     0.45200
H720        H  0.65014806  0.48532775  0.91258292     0.36700
C721        C  0.37059719  0.52518782  0.89509988    -0.27600
C722        C  0.37930292  0.51346236  0.87751710     0.02000
C723        C  0.38852384  0.52490977  0.85992829     0.30100
C724        C  0.38838360  0.54767859  0.85980520    -0.19400
C725        C  0.37940972  0.55947988  0.87723713    -0.28800
C726        C  0.37059651  0.54799796  0.89507740     0.44100
C727        C  0.37764729  0.48937849  0.87710579     0.05300
O728        O  0.39759539  0.51398252  0.84268833    -0.57300
H729        H  0.39538171  0.55613444  0.84599668     0.18300
O730        O  0.36131523  0.55883288  0.91225860    -0.64000
H731        H  0.36315702  0.51663277  0.90860817     0.16700
C732        C  0.38566494  0.47656490  0.89435533     0.29000
C733        C  0.38335977  0.45386755  0.89371700    -0.24900
C734        C  0.37314827  0.44360480  0.87597058    -0.24200
C735        C  0.36515241  0.45649827  0.85871534     0.40400
C736        C  0.36742643  0.47914432  0.85939900    -0.26700
O737        O  0.39658448  0.48602141  0.91141956    -0.58500
H738        H  0.38990369  0.44425466  0.90699881     0.16000
O739        O  0.35482185  0.44720758  0.84121194    -0.60000
H740        H  0.36088937  0.48880836  0.84614879     0.14500
H741        H  0.34585158  0.56098583  0.90805404     0.46300
H742        H  0.38631045  0.48556996  0.92384543     0.41700
H743        H  0.33929222  0.44613844  0.84552450     0.45200
H744        H  0.41268962  0.51053674  0.84733479     0.36700
C745        C  0.47845660  0.63779301  0.85729437    -0.27600
C746        C  0.48975025  0.62899808  0.87512860     0.02000
C747        C  0.47786417  0.62078696  0.89295593     0.30100
C748        C  0.45508972  0.62120092  0.89261587    -0.19400
C749        C  0.44380620  0.62935002  0.87445964    -0.28800
C750        C  0.45569425  0.63793606  0.85681478     0.44100
C751        C  0.51387907  0.62817613  0.87485709     0.05300
O752        O  0.48833429  0.61187343  0.91057902    -0.57300
H753        H  0.44623988  0.61452826  0.90633957     0.18300
O754        O  0.44526482  0.64663508  0.83906275    -0.64000
H755        H  0.48732810  0.64464073  0.84368138     0.16700
C756        C  0.52515773  0.61876015  0.85724072     0.29000
C757        C  0.54791771  0.61752937  0.85763389    -0.24900
C758        C  0.55980354  0.62560350  0.87543485    -0.24200
C759        C  0.54850760  0.63551154  0.89282095     0.40400
C760        C  0.52575704  0.63668716  0.89243915    -0.26700
O761        O  0.51401597  0.60975368  0.84007293    -0.58500
H762        H  0.55625283  0.60985706  0.84411028     0.16000
O763        O  0.55949752  0.64432131  0.91017344    -0.60000
H764        H  0.51734858  0.64441004  0.90589022     0.14500
H765        H  0.44237852  0.66204231  0.84297309     0.46300
H766        H  0.51608521  0.61999179  0.82777794     0.41700
H767        H  0.56292198  0.65947070  0.90576176     0.45200
H768        H  0.49037445  0.59628656  0.90685944     0.36700
C769        C  0.62542195  0.51875949  0.14661653    -0.27600
C770        C  0.63392669  0.50636967  0.12940152     0.02000
C771        C  0.64307279  0.51726074  0.11136015     0.30100
C772        C  0.64235883  0.54002252  0.11011158    -0.19400
C773        C  0.63320590  0.55240088  0.12701030    -0.28800
C774        C  0.62515818  0.54153990  0.14562248     0.44100
C775        C  0.63160059  0.48225018  0.12952436     0.05300
O776        O  0.65253976  0.50577781  0.09470570    -0.57300
H777        H  0.64907154  0.54801685  0.09589324     0.18300
O778        O  0.61631290  0.55294883  0.16266786    -0.64000
H779        H  0.61814841  0.51077104  0.16054810     0.16700
C780        C  0.63777802  0.46953494  0.14762919     0.29000
C781        C  0.63493751  0.44686768  0.14714593    -0.24900
C782        C  0.62594149  0.43650203  0.12879054    -0.24200
C783        C  0.61947317  0.44929881  0.11087363     0.40400
C784        C  0.62228170  0.47188792  0.11137255    -0.26700
O785        O  0.64748733  0.47897816  0.16542302    -0.58500
H786        H  0.64019371  0.43734226  0.16104858     0.16000
O787        O  0.61015224  0.43997435  0.09283736    -0.60000
H788        H  0.61685328  0.48141924  0.09754489     0.14500
H789        H  0.60062825  0.55447979  0.15906464     0.46300
H790        H  0.63653658  0.47812843  0.17725182     0.41700
H791        H  0.59432092  0.43947228  0.09602399     0.45200
H792        H  0.66750953  0.50245881  0.09983157     0.36700
C793        C  0.52672926  0.62283200  0.10510895    -0.27600
C794        C  0.51616906  0.61386375  0.12327498     0.02000
C795        C  0.52872681  0.60528565  0.14044157     0.30100
C796        C  0.55150459  0.60622392  0.13950189    -0.19400
C797        C  0.56212982  0.61556112  0.12153693    -0.28800
C798        C  0.54950909  0.62381511  0.10417250     0.44100
C799        C  0.49205425  0.61409153  0.12432450     0.05300
O800        O  0.51884653  0.59523163  0.15778305    -0.57300
H801        H  0.56089237  0.59945997  0.15284009     0.18300
O802        O  0.55919740  0.63336120  0.08646408    -0.64000
H803        H  0.51724327  0.62956577  0.09182110     0.16700
C804        C  0.48115179  0.62472166  0.14147858     0.29000
C805        C  0.45839494  0.62535578  0.14187389    -0.24900
C806        C  0.44613905  0.61601326  0.12499548    -0.24200
C807        C  0.45700505  0.60517929  0.10791679     0.40400
C808        C  0.47980879  0.60435737  0.10763557    -0.26700
O809        O  0.49259779  0.63514161  0.15759201    -0.58500
H810        H  0.45032334  0.63384524  0.15506986     0.16000
O811        O  0.44552602  0.59521824  0.09152794    -0.60000
H812        H  0.48798066  0.59607364  0.09437259     0.14500
H813        H  0.56092864  0.64892076  0.09045828     0.46300
H814        H  0.49493303  0.65014927  0.15209585     0.41700
H815        H  0.44217179  0.58042118  0.09709814     0.45200
H816        H  0.52170395  0.60474132  0.17052943     0.36700
C817        C  0.51966177  0.38152671  0.14124319    -0.27600
C818        C  0.50858140  0.37188798  0.12371925     0.02000
C819        C  0.52077161  0.36286150  0.10647340     0.30100
C820        C  0.54358557  0.36322304  0.10715840    -0.19400
C821        C  0.55466211  0.37215296  0.12509630    -0.28800
C822        C  0.54244881  0.38154230  0.14213225     0.44100
C823        C  0.48436871  0.37143476  0.12356123     0.05300
O824        O  0.51056543  0.35328718  0.08904626    -0.57300
H825        H  0.55262427  0.35594677  0.09387046     0.18300
O826        O  0.55261254  0.39148515  0.15937383    -0.64000
H827        H  0.51061056  0.38917704  0.15430448     0.16700
C828        C  0.47250264  0.36355205  0.14156816     0.29000
C829        C  0.44967285  0.36339907  0.14104524    -0.24900
C830        C  0.43829592  0.37089351  0.12265853    -0.24200
C831        C  0.45020533  0.37865975  0.10461388     0.40400
C832        C  0.47298178  0.37908134  0.10527223    -0.26700
O833        O  0.48309814  0.35512187  0.15936488    -0.58500
H834        H  0.44086822  0.35713918  0.15498917     0.16000
O835        O  0.43977000  0.38673134  0.08657140    -0.60000
H836        H  0.48179153  0.38561553  0.09146142     0.14500
H837        H  0.55228250  0.38063509  0.17133508     0.46300
H838        H  0.48117754  0.36605554  0.17108331     0.41700
H839        H  0.43962063  0.37454548  0.07595961     0.45200
H840        H  0.50797792  0.33799022  0.09353249     0.36700
C841        C  0.38923896  0.47330061  0.13191035    -0.27600
C842        C  0.37619803  0.48498935  0.11716892     0.02000
C843        C  0.36330987  0.47337315  0.10206923     0.30100
C844        C  0.36307997  0.45055310  0.10242183    -0.19400
C845        C  0.37511671  0.43901877  0.11807849    -0.28800
C846        C  0.38848187  0.45055858  0.13270182     0.44100
C847        C  0.37561828  0.50918077  0.11833074     0.05300
O848        O  0.35037704  0.48411822  0.08734223    -0.57300
H849        H  0.35280967  0.44187702  0.09097570     0.18300
O850        O  0.40136205  0.43971195  0.14741027    -0.64000
H851        H  0.39988051  0.48185296  0.14309272     0.16700
C852        C  0.37231892  0.51987186  0.13837596     0.29000
C853        C  0.37213013  0.54263723  0.13934155    -0.24900
C854        C  0.37512055  0.55527498  0.12051899    -0.24200
C855        C  0.37787920  0.54453750  0.10032586     0.40400
C856        C  0.37835696  0.52173493  0.09942698    -0.26700
O857        O  0.36844078  0.50817594  0.15702097    -0.58500
H858        H  0.36961972  0.55038672  0.15498845     0.16000
O859        O  0.38080402  0.55606864  0.08142645    -0.60000
H860        H  0.38113637  0.51384633  0.08389426     0.14500
H861        H  0.39337419  0.44048252  0.16142579     0.46300
H862        H  0.38174352  0.50987456  0.16603736     0.41700
H863        H  0.36605570  0.55734103  0.07491480     0.45200
H864        H  0.33677804  0.48755919  0.09533648     0.36700
C865        C  0.73157806  0.61202562  0.10803230    -0.27600
C866        C  0.74211539  0.62503650  0.12357969     0.02000
C867        C  0.72957638  0.63729468  0.13833665     0.30100
C868        C  0.70680365  0.63611863  0.13766271    -0.19400
C869        C  0.69621942  0.62305819  0.12213583    -0.28800
C870        C  0.70881677  0.61103523  0.10716668     0.44100
C871        C  0.76620114  0.62557566  0.12432699     0.05300
O872        O  0.73943877  0.65035832  0.15354811    -0.57300
H873        H  0.69738246  0.64557382  0.14920429     0.18300
O874        O  0.69908512  0.59796337  0.09187532    -0.64000
H875        H  0.74106410  0.60262188  0.09650314     0.16700
C876        C  0.77823260  0.60658787  0.12874294     0.29000
C877        C  0.80101892  0.60735736  0.12924848    -0.24900
C878        C  0.81223088  0.62689977  0.12511071    -0.24200
C879        C  0.80004496  0.64588462  0.12043164     0.40400
C880        C  0.77724328  0.64512949  0.12028033    -0.26700
O881        O  0.76780462  0.58736860  0.13332215    -0.58500
H882        H  0.80990221  0.59257341  0.13299580     0.16000
O883        O  0.81016097  0.66524274  0.11577727    -0.60000
H884        H  0.76812517  0.65980286  0.11663485     0.14500
H885        H  0.69668304  0.58381893  0.09930298     0.46300
H886        H  0.76855030  0.57875821  0.11968197     0.41700
H887        H  0.81232973  0.66512461  0.09977338     0.45200
H888        H  0.74228999  0.64073125  0.16619636     0.36700
C889        C  0.77503678  0.64387787  0.88479092    -0.27600
C890        C  0.76404795  0.62586575  0.87607007     0.02000
C891        C  0.77613374  0.60828359  0.86770024     0.30100
C892        C  0.79891421  0.60886971  0.86810135    -0.19400
C893        C  0.81001195  0.62696325  0.87665396    -0.28800
C894        C  0.79782919  0.64454223  0.88513289     0.44100
C895        C  0.73996288  0.62536963  0.87592675     0.05300
O896        O  0.76580099  0.59040438  0.85916789    -0.57300
H897        H  0.80791445  0.59520780  0.86148666     0.18300
O898        O  0.80798179  0.66236376  0.89399511    -0.64000
H899        H  0.76588906  0.65749707  0.89129985     0.16700
C900        C  0.72807862  0.62593154  0.89547932     0.29000
C901        C  0.70533053  0.62446154  0.89503199    -0.24900
C902        C  0.69399656  0.62260275  0.87517569    -0.24200
C903        C  0.70603330  0.62274212  0.85553804     0.40400
C904        C  0.72879498  0.62385367  0.85608244    -0.26700
O905        O  0.73857376  0.62769138  0.91513354    -0.58500
H906        H  0.69657753  0.62478653  0.91033616     0.16000
O907        O  0.69583987  0.62161124  0.83568455    -0.60000
H908        H  0.73779437  0.62366513  0.84090869     0.14500
H909        H  0.81019648  0.65867233  0.90957373     0.46300
H910        H  0.74214009  0.61252936  0.91940945     0.41700
H911        H  0.69390180  0.63696705  0.83104412     0.45200
H912        H  0.76283216  0.58080544  0.87181097     0.36700
C913        C  0.88015696  0.64737449  0.02456949    -0.27600
C914        C  0.87812514  0.62760336  0.01329561     0.02000
C915        C  0.87696323  0.60802438  0.02518534     0.30100
C916        C  0.87787233  0.60841726  0.04790327    -0.19400
C917        C  0.87965449  0.62820322  0.05928300    -0.28800
C918        C  0.88085461  0.64783333  0.04732447     0.44100
C919        C  0.87756938  0.62753174  0.98916568     0.05300
O920        O  0.87468509  0.58838473  0.01478127    -0.57300
H921        H  0.87687386  0.59310786  0.05661201     0.18300
O922        O  0.88250743  0.66760341  0.05760035    -0.64000
H923        H  0.88145712  0.66256205  0.01569211     0.16700
C924        C  0.86321037  0.64119655  0.97754987     0.29000
C925        C  0.86335097  0.64110159  0.95475237    -0.24900
C926        C  0.87734850  0.62717902  0.94327654    -0.24200
C927        C  0.89138320  0.61322695  0.95484900     0.40400
C928        C  0.89168748  0.61374835  0.97760290    -0.26700
O929        O  0.84833975  0.65393063  0.98833927    -0.58500
H930        H  0.85219258  0.65163875  0.94601033     0.16000
O931        O  0.90555970  0.59975196  0.94405774    -0.60000
H932        H  0.90311831  0.60343370  0.98624573     0.14500
H933        H  0.89833942  0.67077839  0.05817279     0.46300
H934        H  0.85349358  0.66911299  0.98646827     0.41700
H935        H  0.89834961  0.58529489  0.94387024     0.45200
H936        H  0.85884023  0.58686797  0.01200006     0.36700
C937        C  0.27526921  0.62057399  0.89150329    -0.27600
C938        C  0.26421959  0.62293633  0.87173961     0.02000
C939        C  0.27596632  0.62543772  0.85232150     0.30100
C940        C  0.29872215  0.62579614  0.85284916    -0.19400
C941        C  0.31002288  0.62359266  0.87267272    -0.28800
C942        C  0.29801154  0.62087476  0.89213354     0.44100
C943        C  0.24033432  0.62311553  0.87163624     0.05300
O944        O  0.26530681  0.62810301  0.83286079    -0.57300
H945        H  0.30749614  0.62802679  0.83771630     0.18300
O946        O  0.30824749  0.61801003  0.91179690    -0.64000
H947        H  0.26619829  0.61851713  0.90649721     0.16700
C948        C  0.22852740  0.60409144  0.86707467     0.29000
C949        C  0.20575832  0.60463008  0.86706461    -0.24900
C950        C  0.19452356  0.62405720  0.87171230    -0.24200
C951        C  0.20660962  0.64304015  0.87668282     0.40400
C952        C  0.22934321  0.64243625  0.87651322    -0.26700
O953        O  0.23912984  0.58497515  0.86245657    -0.58500
H954        H  0.19691235  0.58982684  0.86333402     0.16000
O955        O  0.19646755  0.66226623  0.88184794    -0.60000
H956        H  0.23845612  0.65708469  0.88026706     0.14500
H957        H  0.30825028  0.63259417  0.91874772     0.46300
H958        H  0.24213467  0.57821797  0.87681905     0.41700
H959        H  0.19435511  0.66175965  0.89785951     0.45200
H960        H  0.26342690  0.61317689  0.82699556     0.36700
C961        C  0.02527651  0.60850545  0.87880763    -0.27600
C962        C  0.01436688  0.62835845  0.87568991     0.02000
C963        C  0.02671669  0.64747745  0.87272450     0.30100
C964        C  0.04949490  0.64646966  0.87270503    -0.19400
C965        C  0.06043217  0.62649673  0.87531115    -0.28800
C966        C  0.04801320  0.60741183  0.87850336     0.44100
C967        C  0.99016139  0.62879452  0.87553764     0.05300
O968        O  0.01672072  0.66719951  0.86948698    -0.57300
H969        H  0.05858678  0.66138763  0.87025046     0.18300
O970        O  0.05781905  0.58752361  0.88125064    -0.64000
H971        H  0.01611932  0.59370277  0.88164567     0.16700
C972        C  0.97818071  0.61389311  0.86279294     0.29000
C973        C  0.95539571  0.61404706  0.86341643    -0.24900
C974        C  0.94415920  0.62913226  0.87634910    -0.24200
C975        C  0.95606181  0.64420007  0.88891902     0.40400
C976        C  0.97887336  0.64386233  0.88855525    -0.26700
O977        O  0.98860017  0.59977321  0.84894434    -0.58500
H978        H  0.94646300  0.60256304  0.85341332     0.16000
O979        O  0.94559138  0.65901242  0.90195469    -0.60000
H980        H  0.98776378  0.65519488  0.89875407     0.14500
H981        H  0.06014238  0.58610435  0.89717856     0.46300
H982        H  0.98648683  0.58509990  0.85532231     0.41700
H983        H  0.94353069  0.65148485  0.91609645     0.45200
H984        H  0.01420627  0.66812011  0.85355764     0.36700
C985        C  0.23144136  0.60528802  0.12739516    -0.27600
C986        C  0.24247169  0.62525188  0.12849654     0.02000
C987        C  0.23042957  0.64471257  0.12911789     0.30100
C988        C  0.20769398  0.64407746  0.12824356    -0.19400
C989        C  0.19647538  0.62413264  0.12683685    -0.28800
C990        C  0.20865203  0.60458490  0.12648617     0.44100
C991        C  0.26655716  0.62568632  0.12853533     0.05300
O992        O  0.24075132  0.66446930  0.13062530    -0.57300
H993        H  0.19885410  0.65934326  0.12868620     0.18300
O994        O  0.19855976  0.58469754  0.12525684    -0.64000
H995        H  0.24056833  0.59018592  0.12685343     0.16700
C996        C  0.27854824  0.61498200  0.14486883     0.29000
C997        C  0.30132849  0.61542412  0.14442265    -0.24900
C998        C  0.31250631  0.62628442  0.12766040    -0.24200
C999        C  0.30044000  0.63711206  0.11137938     0.40400
C1000       C  0.27764898  0.63687763  0.11200661    -0.26700
O1001       O  0.26814137  0.60402932  0.16131144    -0.58500
H1002       H  0.31026965  0.60689472  0.15703410     0.16000
O1003       O  0.31072925  0.64850648  0.09516473    -0.60000
H1004       H  0.26857865  0.64524208  0.09937339     0.14500
H1005       H  0.19821559  0.58107802  0.10951149     0.46300
H1006       H  0.26602231  0.61497801  0.17300122     0.41700
H1007       H  0.31056636  0.63870170  0.08232774     0.45200
H1008       H  0.24350612  0.66662389  0.14640474     0.36700
C1009       C  0.98145082  0.64615835  0.12103573    -0.27600
C1010       C  0.99275665  0.62658433  0.12413109     0.02000
C1011       C  0.98106331  0.60742495  0.12863040     0.30100
C1012       C  0.95827354  0.60796947  0.12961429    -0.19400
C1013       C  0.94678291  0.62751440  0.12619522    -0.28800
C1014       C  0.95869515  0.64678434  0.12207611     0.44100
C1015       C  0.01680199  0.62650975  0.12307320     0.05300
O1016       O  0.99184768  0.58832849  0.13299168    -0.57300
H1017       H  0.94961277  0.59301876  0.13316832     0.18300
O1018       O  0.94832945  0.66623214  0.11840252    -0.64000
H1019       H  0.99033277  0.66102109  0.11761380     0.16700
C1020       C  0.02795419  0.61371173  0.10764431     0.29000
C1021       C  0.05074414  0.61353906  0.10735395    -0.24900
C1022       C  0.06261208  0.62652156  0.12192196    -0.24200
C1023       C  0.05146995  0.63958252  0.13711201     0.40400
C1024       C  0.02870410  0.63955267  0.13756989    -0.26700
O1025       O  0.01672617  0.60153273  0.09265095    -0.58500
H1026       H  0.05916892  0.60353121  0.09550984     0.16000
O1027       O  0.06269883  0.65196944  0.15194941    -0.60000
H1028       H  0.02029726  0.64946563  0.14950562     0.14500
H1029       H  0.94830906  0.67377439  0.13269114     0.46300
H1030       H  0.01367375  0.61163592  0.08041651     0.41700
H1031       H  0.06484932  0.64233703  0.16476728     0.45200
H1032       H  0.98958010  0.57904141  0.11996817     0.36700
C1033       C  0.14375364  0.63840642  0.97417574    -0.27600
C1034       C  0.13198065  0.62261166  0.98578914     0.02000
C1035       C  0.11957215  0.60714591  0.97418729     0.30100
C1036       C  0.11918135  0.60762914  0.95136642    -0.19400
C1037       C  0.13074178  0.62359525  0.93981339    -0.28800
C1038       C  0.14321539  0.63898075  0.95140575     0.44100
C1039       C  0.13221394  0.62306287  0.00997225     0.05300
O1040       O  0.10670720  0.59243597  0.98503515    -0.57300
H1041       H  0.10929030  0.59584959  0.94269841     0.18300
O1042       O  0.15508701  0.65454996  0.94065915    -0.64000
H1043       H  0.15345286  0.65035039  0.98283150     0.16700
C1044       C  0.13757756  0.60445715  0.02229279     0.29000
C1045       C  0.13722447  0.60534597  0.04506515    -0.24900
C1046       C  0.13203217  0.62477879  0.05605272    -0.24200
C1047       C  0.12720850  0.64354515  0.04364514     0.40400
C1048       C  0.12734233  0.64255450  0.02087267    -0.26700
O1049       O  0.14349244  0.58538114  0.01228648    -0.58500
H1050       H  0.14125888  0.59075895  0.05414069     0.16000
O1051       O  0.12216782  0.66293942  0.05351120    -0.60000
H1052       H  0.12331067  0.65706089  0.01165725     0.14500
H1053       H  0.16915456  0.64743931  0.93709657     0.46300
H1054       H  0.15904863  0.58727783  0.00837674     0.41700
H1055       H  0.10605955  0.66296995  0.05481053     0.45200
H1056       H  0.11290010  0.57789269  0.98165132     0.36700
C1057       C  0.62588731  0.26670320  0.11178682    -0.27600
C1058       C  0.61804130  0.25629168  0.13051404     0.02000
C1059       C  0.61121953  0.26884185  0.14835555     0.30100
C1060       C  0.61213722  0.29158264  0.14729587    -0.19400
C1061       C  0.61970187  0.30221236  0.12846327    -0.28800
C1062       C  0.62677309  0.28948155  0.11063705     0.44100
C1063       C  0.61771695  0.23227848  0.13156970     0.05300
O1064       O  0.60438077  0.25897631  0.16718434    -0.57300
H1065       H  0.60682290  0.30091073  0.16129182     0.18300
O1066       O  0.63487144  0.29903232  0.09215108    -0.64000
H1067       H  0.63142095  0.25710379  0.09805150     0.16700
C1068       C  0.59801533  0.22064370  0.13063498     0.29000
C1069       C  0.59819590  0.19783210  0.13142363    -0.24900
C1070       C  0.61794112  0.18628822  0.13317819    -0.24200
C1071       C  0.63763245  0.19820414  0.13470075     0.40400
C1072       C  0.63737697  0.22094775  0.13360705    -0.26700
O1073       O  0.57853027  0.23143837  0.12882887    -0.58500
H1074       H  0.58284202  0.18919430  0.13042730     0.16000
O1075       O  0.65729713  0.18788684  0.13721146    -0.60000
H1076       H  0.65260800  0.22982383  0.13457542     0.14500
H1077       H  0.65068177  0.30092378  0.09495623     0.46300
H1078       H  0.57614344  0.23326155  0.11296519     0.41700
H1079       H  0.65948746  0.18676747  0.15318525     0.45200
H1080       H  0.58826714  0.25855529  0.16612717     0.36700
C1081       C  0.63706541  0.22384321  0.89067235    -0.27600
C1082       C  0.61692939  0.23412300  0.88772283     0.02000
C1083       C  0.59804937  0.22157068  0.88496195     0.30100
C1084       C  0.59952388  0.19886070  0.88461995    -0.19400
C1085       C  0.61976286  0.18832267  0.88709186    -0.28800
C1086       C  0.63863507  0.20111121  0.89037506     0.44100
C1087       C  0.61603660  0.25800394  0.88641762     0.05300
O1088       O  0.57820641  0.23138183  0.88188130    -0.57300
H1089       H  0.58476947  0.18952109  0.88207827     0.18300
O1090       O  0.65863509  0.19165814  0.89357166    -0.64000
H1091       H  0.65166234  0.23351698  0.89292535     0.16700
C1092       C  0.61173381  0.27067577  0.90493167     0.29000
C1093       C  0.61198990  0.29341163  0.90340963    -0.24900
C1094       C  0.61656837  0.30380061  0.88348599    -0.24200
C1095       C  0.62049749  0.29084761  0.86485003     0.40400
C1096       C  0.62020482  0.26814840  0.86647012    -0.26700
O1097       O  0.60720749  0.26096849  0.92452652    -0.58500
H1098       H  0.60866971  0.30289767  0.91790593     0.16000
O1099       O  0.62474694  0.30009253  0.84497360    -0.60000
H1100       H  0.62347114  0.25838777  0.85213124     0.14500
H1101       H  0.66586227  0.19204809  0.87913814     0.46300
H1102       H  0.62154018  0.25913838  0.93176458     0.41700
H1103       H  0.64084717  0.30138783  0.84427607     0.45200
H1104       H  0.57224777  0.23358130  0.89672121     0.36700
C1105       C  0.63792683  0.12551946  0.98589135    -0.27600
C1106       C  0.61975506  0.11652064  0.99649453     0.02000
C1107       C  0.60251984  0.10814471  0.98383304     0.30100
C1108       C  0.60345283  0.10920245  0.96110451    -0.19400
C1109       C  0.62166017  0.11808878  0.95048916    -0.28800
C1110       C  0.63907997  0.12616822  0.96313969     0.44100
C1111       C  0.61884612  0.11622281  0.02069132     0.05300
O1112       O  0.58473734  0.09869241  0.99348155    -0.57300
H1113       H  0.58995251  0.10273600  0.95174264     0.18300
O1114       O  0.65716858  0.13506537  0.95352100    -0.64000
H1115       H  0.65117950  0.13242622  0.99527756     0.16700
C1116       C  0.63659346  0.10860414  0.03310601     0.29000
C1117       C  0.63568524  0.10915454  0.05585415    -0.24900
C1118       C  0.61717468  0.11705402  0.06672342    -0.24200
C1119       C  0.59918831  0.12421575  0.05432310     0.40400
C1120       C  0.60020819  0.12392925  0.03153473    -0.26700
O1121       O  0.65453796  0.09974237  0.02314690    -0.58500
H1122       H  0.64953315  0.10314679  0.06502075     0.16000
O1123       O  0.58064717  0.13178188  0.06422229    -0.60000
H1124       H  0.58647494  0.13009189  0.02230662     0.14500
H1125       H  0.65363491  0.15070201  0.95149918     0.46300
H1126       H  0.66652190  0.11026710  0.02566109     0.41700
H1127       H  0.58276516  0.14773604  0.06558002     0.45200
H1128       H  0.58897776  0.08331155  0.99601061     0.36700
C1129       C  0.62883934  0.72415588  0.89238711    -0.27600
C1130       C  0.63262122  0.73477530  0.87254532     0.02000
C1131       C  0.63522409  0.72236230  0.85348651     0.30100
C1132       C  0.63387489  0.69962345  0.85444714    -0.19400
C1133       C  0.62983960  0.68888712  0.87429502    -0.28800
C1134       C  0.62731713  0.70147423  0.89339191     0.44100
C1135       C  0.63275671  0.75884937  0.87194382     0.05300
O1136       O  0.63873014  0.73231200  0.83380269    -0.57300
H1137       H  0.63593135  0.69040509  0.83954816     0.18300
O1138       O  0.62326698  0.69188977  0.91315195    -0.64000
H1139       H  0.62685066  0.73356079  0.90718972     0.16700
C1140       C  0.61453821  0.77059782  0.87930638     0.29000
C1141       C  0.61495804  0.79329482  0.87952614    -0.24900
C1142       C  0.63338655  0.80481041  0.87237307    -0.24200
C1143       C  0.65161954  0.79304101  0.86474754     0.40400
C1144       C  0.65114195  0.77019043  0.86446806    -0.26700
O1145       O  0.59614802  0.76000188  0.88627296    -0.58500
H1146       H  0.60073061  0.80190732  0.88542857     0.16000
O1147       O  0.66963326  0.80363384  0.85686936    -0.60000
H1148       H  0.66523729  0.76130028  0.85865587     0.14500
H1149       H  0.60718541  0.69155374  0.91445355     0.46300
H1150       H  0.58741058  0.75743997  0.87291981     0.41700
H1151       H  0.68021843  0.80368021  0.86907760     0.45200
H1152       H  0.62401811  0.73449282  0.82746701     0.36700
C1153       C  0.63944971  0.01949755  0.88873269    -0.27600
C1154       C  0.62347420  0.00870922  0.87643301     0.02000
C1155       C  0.60695446  0.02092002  0.86623495     0.30100
C1156       C  0.60675511  0.04361813  0.86818470    -0.19400
C1157       C  0.62304362  0.05446472  0.88004905    -0.28800
C1158       C  0.63929959  0.04218983  0.89063891     0.44100
C1159       C  0.62412059  0.98469713  0.87465065     0.05300
O1160       O  0.59110400  0.01083694  0.85412625    -0.57300
H1161       H  0.59406799  0.05279730  0.86001893     0.18300
O1162       O  0.65484657  0.05214419  0.90323873    -0.64000
H1163       H  0.65194468  0.01024624  0.89710573     0.16700
C1164       C  0.64270379  0.97403534  0.86652573     0.29000
C1165       C  0.64349791  0.95126524  0.86605672    -0.24900
C1166       C  0.62587686  0.93877682  0.87359665    -0.24200
C1167       C  0.60709100  0.94954386  0.88137654     0.40400
C1168       C  0.60633341  0.97231349  0.88181354    -0.26700
O1169       O  0.65986182  0.98578694  0.85835858    -0.58500
H1170       H  0.65792691  0.94337712  0.85965357     0.16000
O1171       O  0.58952607  0.93803997  0.88899018    -0.60000
H1172       H  0.59198344  0.98034013  0.88823109     0.14500
H1173       H  0.64818398  0.05350527  0.91789027     0.46300
H1174       H  0.67129344  0.98516247  0.86974257     0.41700
H1175       H  0.59239594  0.93589101  0.90474650     0.45200
H1176       H  0.59672224  0.01079351  0.83899102     0.36700
C1177       C  0.62954048  0.72170536  0.13641656    -0.27600
C1178       C  0.62337447  0.73231813  0.11723401     0.02000
C1179       C  0.61864744  0.72000781  0.09851022     0.30100
C1180       C  0.62001763  0.69721409  0.09919490    -0.19400
C1181       C  0.62603536  0.68642863  0.11850825    -0.28800
C1182       C  0.63108308  0.69901886  0.13714908     0.44100
C1183       C  0.62240709  0.75632032  0.11696205     0.05300
O1184       O  0.61263512  0.73012018  0.07951710    -0.57300
H1185       H  0.61611633  0.68798006  0.08467375     0.18300
O1186       O  0.63776772  0.68940331  0.15618093    -0.64000
H1187       H  0.63345546  0.73111020  0.15083700     0.16700
C1188       C  0.60570582  0.76751050  0.12792280     0.29000
C1189       C  0.60560407  0.79031274  0.12828548    -0.24900
C1190       C  0.62243304  0.80219682  0.11834528    -0.24200
C1191       C  0.63909399  0.79089039  0.10726965     0.40400
C1192       C  0.63892803  0.76811039  0.10657264    -0.26700
O1193       O  0.58934869  0.75626673  0.13815813    -0.58500
H1194       H  0.59267280  0.79869769  0.13688026     0.16000
O1195       O  0.65560107  0.80192178  0.09704719    -0.60000
H1196       H  0.65191905  0.75958809  0.09820219     0.14500
H1197       H  0.65382456  0.68807435  0.15485985     0.46300
H1198       H  0.59422482  0.75473481  0.15347892     0.41700
H1199       H  0.64995141  0.80521947  0.08226243     0.45200
H1200       H  0.59675120  0.73273402  0.08093533     0.36700
C1201       C  0.60627865  0.96938334  0.14168578    -0.27600
C1202       C  0.62395307  0.98174486  0.13416853     0.02000
C1203       C  0.64235433  0.97087981  0.12572293     0.30100
C1204       C  0.64242467  0.94811503  0.12404357    -0.19400
C1205       C  0.62422107  0.93584263  0.13050708    -0.28800
C1206       C  0.60628424  0.94669303  0.13992680     0.44100
C1207       C  0.62265036  0.00590339  0.13467364     0.05300
O1208       O  0.66013328  0.98234823  0.11856281    -0.57300
H1209       H  0.65652370  0.94011049  0.11707752     0.18300
O1210       O  0.58864232  0.93531627  0.14755155    -0.64000
H1211       H  0.59231488  0.97738305  0.14891677     0.16700
C1212       C  0.60461232  0.01689993  0.12560249     0.29000
C1213       C  0.60363829  0.03968697  0.12609985    -0.24900
C1214       C  0.62059137  0.05190366  0.13535599    -0.24200
C1215       C  0.63858042  0.04088386  0.14455989     0.40400
C1216       C  0.63945927  0.01810648  0.14422260    -0.26700
O1217       O  0.58841547  0.00553582  0.11518391    -0.58500
H1218       H  0.58982703  0.04782638  0.11869361     0.16000
O1219       O  0.65537875  0.05217965  0.15403796    -0.60000
H1220       H  0.65328320  0.00993977  0.15157079     0.14500
H1221       H  0.59231456  0.93159822  0.16284665     0.46300
H1222       H  0.57565400  0.00623568  0.12503770     0.41700
H1223       H  0.65068270  0.05478224  0.16926373     0.45200
H1224       H  0.65678198  0.98621475  0.10324224     0.36700
C1225       C  0.60907206  0.88219160  0.02127342    -0.27600
C1226       C  0.62667023  0.87233000  0.01047380     0.02000
C1227       C  0.64333997  0.86256596  0.02284992     0.30100
C1228       C  0.64238152  0.86292447  0.04558539    -0.19400
C1229       C  0.62470379  0.87257853  0.05643606    -0.28800
C1230       C  0.60795521  0.88230388  0.04406094     0.44100
C1231       C  0.62754739  0.87222552  0.98633361     0.05300
O1232       O  0.66048732  0.85229833  0.01287009    -0.57300
H1233       H  0.65531795  0.85515403  0.05476014     0.18300
O1234       O  0.59056662  0.89217668  0.05401673    -0.64000
H1235       H  0.59624724  0.89002168  0.01200393     0.16700
C1236       C  0.61015780  0.86389900  0.97392904     0.29000
C1237       C  0.61143482  0.86371014  0.95118271    -0.24900
C1238       C  0.62990997  0.87179433  0.94034675    -0.24200
C1239       C  0.64732911  0.88016465  0.95281308     0.40400
C1240       C  0.64604006  0.88031393  0.97558758    -0.26700
O1241       O  0.59225876  0.85502814  0.98393303    -0.58500
H1242       H  0.59793145  0.85698708  0.94200808     0.16000
O1243       O  0.66558095  0.88846155  0.94298081    -0.60000
H1244       H  0.65947345  0.88697796  0.98491110     0.14500
H1245       H  0.59536688  0.90733629  0.05686763     0.46300
H1246       H  0.58047675  0.86592023  0.98208134     0.41700
H1247       H  0.66265147  0.90426178  0.94126991     0.45200
H1248       H  0.65530141  0.83728414  0.00992835     0.36700
C1249       C  0.26652187  0.37379617  0.89235855    -0.27600
C1250       C  0.25559785  0.37781996  0.87270609     0.02000
C1251       C  0.26777591  0.38225164  0.85383165     0.30100
C1252       C  0.29055152  0.38256993  0.85477875    -0.19400
C1253       C  0.30162513  0.37851484  0.87445119    -0.28800
C1254       C  0.28930060  0.37417881  0.89338605     0.44100
C1255       C  0.23148994  0.37742674  0.87210262     0.05300
O1256       O  0.25756201  0.38607590  0.83432178    -0.57300
H1257       H  0.29954576  0.38594019  0.83998915     0.18300
O1258       O  0.29926803  0.36964172  0.91286348    -0.64000
H1259       H  0.25732334  0.37046433  0.90703466     0.16700
C1260       C  0.21987792  0.35863177  0.87814556     0.29000
C1261       C  0.19707764  0.35864046  0.87757924    -0.24900
C1262       C  0.18545046  0.37738085  0.87136929    -0.24200
C1263       C  0.19718796  0.39620024  0.86525708     0.40400
C1264       C  0.21999339  0.39608243  0.86564804    -0.26700
O1265       O  0.23071793  0.33996688  0.88396191    -0.58500
H1266       H  0.18849357  0.34396686  0.88229208     0.16000
O1267       O  0.18661518  0.41480553  0.85882872    -0.60000
H1268       H  0.22876086  0.41069062  0.86105261     0.14500
H1269       H  0.29977168  0.38373775  0.92074259     0.46300
H1270       H  0.22978683  0.33933042  0.90007093     0.41700
H1271       H  0.18473666  0.41330386  0.84285300     0.45200
H1272       H  0.25561937  0.37150029  0.82763141     0.36700
C1273       C  0.22284881  0.35993762  0.11104996    -0.27600
C1274       C  0.23413913  0.37787657  0.11953076     0.02000
C1275       C  0.22247716  0.39585693  0.12752698     0.30100
C1276       C  0.19971417  0.39556857  0.12735811    -0.19400
C1277       C  0.18829395  0.37734142  0.11951715    -0.28800
C1278       C  0.20006923  0.35955168  0.11099083     0.44100
C1279       C  0.25813070  0.37757029  0.12002944     0.05300
O1280       O  0.23323062  0.41398565  0.13496001    -0.57300
H1281       H  0.19099950  0.40953548  0.13371835     0.18300
O1282       O  0.18954119  0.34180368  0.10242519    -0.64000
H1283       H  0.23176017  0.34611258  0.10464475     0.16700
C1284       C  0.26946490  0.37694387  0.13991366     0.29000
C1285       C  0.29223488  0.37609860  0.14003202    -0.24900
C1286       C  0.30406234  0.37574163  0.12041958    -0.24200
C1287       C  0.29250432  0.37666741  0.10047386     0.40400
C1288       C  0.26973877  0.37735675  0.10044546    -0.26700
O1289       O  0.25839548  0.37683520  0.15930747    -0.58500
H1290       H  0.30060204  0.37545904  0.15555857     0.16000
O1291       O  0.30317751  0.37672101  0.08086526    -0.60000
H1292       H  0.26108652  0.37785368  0.08505607     0.14500
H1293       H  0.18715143  0.34540264  0.08685471     0.46300
H1294       H  0.25568900  0.36125078  0.16254257     0.41700
H1295       H  0.30505702  0.39233072  0.07712202     0.45200
H1296       H  0.23217870  0.41329856  0.15105888     0.36700
C1297       C  0.13016895  0.35873192  0.97398006    -0.27600
C1298       C  0.11939114  0.37533623  0.98534213     0.02000
C1299       C  0.10861048  0.39188246  0.97374137     0.30100
C1300       C  0.10892804  0.39183982  0.95099751    -0.19400
C1301       C  0.11966236  0.37521210  0.93953507    -0.28800
C1302       C  0.13039809  0.35859088  0.95121020     0.44100
C1303       C  0.11976263  0.37552491  0.00932695     0.05300
O1304       O  0.09760875  0.40807085  0.98451388    -0.57300
H1305       H  0.10045089  0.40465272  0.94229508     0.18300
O1306       O  0.14150380  0.34238985  0.94056994    -0.64000
H1307       H  0.13868725  0.34603733  0.98281381     0.16700
C1308       C  0.10976007  0.35882182  0.02134634     0.29000
C1309       C  0.11002553  0.35953175  0.04410765    -0.24900
C1310       C  0.12029662  0.37676162  0.05512186    -0.24200
C1311       C  0.13070943  0.39324001  0.04299235     0.40400
C1312       C  0.13022918  0.39261376  0.02025286    -0.26700
O1313       O  0.09897040  0.34223602  0.01096140    -0.58500
H1314       H  0.10192594  0.34673399  0.05315540     0.16000
O1315       O  0.14174187  0.40980061  0.05315937    -0.60000
H1316       H  0.13824801  0.40537880  0.01108194     0.14500
H1317       H  0.15625482  0.34841859  0.93789885     0.46300
H1318       H  0.10947642  0.32998343  0.01050796     0.41700
H1319       H  0.15655031  0.40393542  0.05596808     0.45200
H1320       H  0.08305640  0.40185582  0.98776464     0.36700
C1321       C  0.76549111  0.39161625  0.88678566    -0.27600
C1322       C  0.75513696  0.37136022  0.88518176     0.02000
C1323       C  0.76767457  0.35248818  0.88206639     0.30100
C1324       C  0.79030165  0.35406730  0.88008226    -0.19400
C1325       C  0.80085283  0.37440935  0.88115880    -0.28800
C1326       C  0.78814521  0.39329373  0.88469869     0.44100
C1327       C  0.73114589  0.37025486  0.88506591     0.05300
O1328       O  0.75790188  0.33244311  0.88068684    -0.57300
H1329       H  0.79957053  0.33926318  0.87757799     0.18300
O1330       O  0.79762288  0.41344266  0.88642134    -0.64000
H1331       H  0.75590502  0.40625429  0.88913046     0.16700
C1332       C  0.71888271  0.37530090  0.90369906     0.29000
C1333       C  0.69609111  0.37484624  0.90273947    -0.24900
C1334       C  0.68523847  0.36968240  0.88319474    -0.24200
C1335       C  0.69773009  0.36422204  0.86466797     0.40400
C1336       C  0.72045576  0.36458892  0.86573722    -0.26700
O1337       O  0.72904093  0.38019690  0.92299504    -0.58500
H1338       H  0.68692913  0.37886071  0.91726539     0.16000
O1339       O  0.68799052  0.35860307  0.84535918    -0.60000
H1340       H  0.72982332  0.36066311  0.85130804     0.14500
H1341       H  0.79651533  0.41990764  0.87166416     0.46300
H1342       H  0.72966881  0.39632338  0.92348341     0.41700
H1343       H  0.68607800  0.34257280  0.84609722     0.45200
H1344       H  0.75591512  0.32765269  0.89598290     0.36700
C1345       C  0.96966225  0.35939547  0.88755787    -0.27600
C1346       C  0.98111627  0.37711995  0.87884041     0.02000
C1347       C  0.96940022  0.39491672  0.87027254     0.30100
C1348       C  0.94657365  0.39478886  0.87057346    -0.19400
C1349       C  0.93509574  0.37698390  0.87914358    -0.28800
C1350       C  0.94688496  0.35922988  0.88782228     0.44100
C1351       C  0.00525699  0.37650205  0.87821970     0.05300
O1352       O  0.98011638  0.41186079  0.86039640    -0.57300
H1353       H  0.93784576  0.40844076  0.86356462     0.18300
O1354       O  0.93636218  0.34162504  0.89667077    -0.64000
H1355       H  0.97844847  0.34562871  0.89427215     0.16700
C1356       C  0.01782025  0.39345617  0.88720623     0.29000
C1357       C  0.04052825  0.39290475  0.88560182    -0.24900
C1358       C  0.05118789  0.37525496  0.87567188    -0.24200
C1359       C  0.03863484  0.35790700  0.86734000     0.40400
C1360       C  0.01587058  0.35864911  0.86863828    -0.26700
O1361       O  0.00809671  0.41050046  0.89787541    -0.58500
H1362       H  0.04985604  0.40620541  0.89250528     0.16000
O1363       O  0.04836389  0.34033580  0.85756399    -0.60000
H1364       H  0.00643758  0.34538538  0.86180332     0.04900
H1365       H  0.93393605  0.34549877  0.91216273     0.46300
H1366       H  0.00596045  0.40533620  0.91302785     0.41700
H1367       H  0.04970917  0.34437732  0.84198064     0.45200
H1368       H  0.97744671  0.42475298  0.86976420     0.36700
C1369       C  0.77125066  0.35396346  0.13263612    -0.27600
C1370       C  0.75867924  0.37295493  0.13141124     0.02000
C1371       C  0.76918432  0.39328067  0.12994687     0.30100
C1372       C  0.79196526  0.39435615  0.12947480    -0.19400
C1373       C  0.80466696  0.37529988  0.13033100    -0.28800
C1374       C  0.79398553  0.35494066  0.13199590     0.44100
C1375       C  0.73462088  0.37129618  0.13135561     0.05300
O1376       O  0.75732540  0.41217920  0.12870937    -0.57300
H1377       H  0.79966188  0.41018169  0.12824968     0.18300
O1378       O  0.80550881  0.33584416  0.13337575    -0.64000
H1379       H  0.76337927  0.33824009  0.13412315     0.16700
C1380       C  0.72373812  0.35884867  0.11544332     0.29000
C1381       C  0.70095250  0.35798627  0.11523714    -0.24900
C1382       C  0.68873442  0.36895276  0.13112379    -0.24200
C1383       C  0.69965594  0.38102566  0.14732999     0.40400
C1384       C  0.72242662  0.38226970  0.14724371    -0.26700
O1385       O  0.73522857  0.34827402  0.09946650    -0.58500
H1386       H  0.69281263  0.34866912  0.10264166     0.16000
O1387       O  0.68820134  0.39263706  0.16259008    -0.60000
H1388       H  0.73060358  0.39184461  0.15961856     0.14500
H1389       H  0.80617782  0.33020264  0.11824526     0.46300
H1390       H  0.73521074  0.33270998  0.10378233     0.41700
H1391       H  0.68795094  0.38324949  0.17573029     0.45200
H1392       H  0.75424738  0.41423433  0.11298619     0.36700
C1393       C  0.01899284  0.36230688  0.11860884    -0.27600
C1394       C  0.00859784  0.38115183  0.12627380     0.02000
C1395       C  0.02123739  0.39905400  0.13295584     0.30100
C1396       C  0.04397682  0.39795255  0.13182215    -0.19400
C1397       C  0.05445299  0.37911282  0.12412279    -0.28800
C1398       C  0.04170907  0.36121051  0.11738548     0.44100
C1399       C  0.98455301  0.38169489  0.12751360     0.05300
O1400       O  0.01152067  0.41721186  0.14165508    -0.57300
H1401       H  0.05343095  0.41179503  0.13734565     0.18300
O1402       O  0.05120684  0.34262434  0.10942050    -0.64000
H1403       H  0.00941114  0.34844348  0.11334956     0.16700
C1404       C  0.97240898  0.39776554  0.11650407     0.29000
C1405       C  0.94965430  0.39767141  0.11767992    -0.24900
C1406       C  0.93868689  0.38130163  0.12923254    -0.24200
C1407       C  0.95086900  0.36524047  0.14027979     0.40400
C1408       C  0.97360990  0.36552352  0.13933516    -0.26700
O1409       O  0.98257928  0.41324902  0.10404000    -0.58500
H1410       H  0.94054046  0.40999823  0.10892113     0.16000
O1411       O  0.94073792  0.34924560  0.15213067    -0.60000
H1412       H  0.98276559  0.35308552  0.14790010     0.14500
H1413       H  0.05282867  0.34517684  0.09355005     0.46300
H1414       H  0.98528213  0.40612040  0.08980672     0.41700
H1415       H  0.93868512  0.35555659  0.16685661     0.45200
H1416       H  0.01395121  0.42901769  0.13089075     0.36700
C1417       C  0.85798266  0.39444816  0.97981229    -0.27600
C1418       C  0.87011206  0.37888264  0.99140039     0.02000
C1419       C  0.88157189  0.36275090  0.97971405     0.30100
C1420       C  0.88035384  0.36203373  0.95696721    -0.19400
C1421       C  0.86839310  0.37770009  0.94540535    -0.28800
C1422       C  0.85732541  0.39414547  0.95701316     0.44100
C1423       C  0.87025374  0.37912295  0.01561910     0.05300
O1424       O  0.89423642  0.34772743  0.99036318    -0.57300
H1425       H  0.88925629  0.34949632  0.94830552     0.18300
O1426       O  0.84503012  0.40942414  0.94628150    -0.64000
H1427       H  0.84871245  0.40671734  0.98845163     0.16700
C1428       C  0.87503255  0.39821381  0.02743490     0.29000
C1429       C  0.87538446  0.39773425  0.05025744    -0.24900
C1430       C  0.87094976  0.37840576  0.06174328    -0.24200
C1431       C  0.86597072  0.35938229  0.04985055     0.40400
C1432       C  0.86548991  0.35992149  0.02707276    -0.26700
O1433       O  0.88029648  0.41716815  0.01682973    -0.58500
H1434       H  0.87938662  0.41255413  0.05896270     0.16000
O1435       O  0.86082810  0.34031133  0.06026569    -0.60000
H1436       H  0.86123591  0.34521589  0.01829263     0.14500
H1437       H  0.85445591  0.42251175  0.94530241     0.46300
H1438       H  0.86754797  0.42688931  0.01880971     0.41700
H1439       H  0.87446948  0.33163916  0.06022526     0.45200
H1440       H  0.90845774  0.35504291  0.99267656     0.36700
C1441       C  0.40633430  0.77152495  0.13103106    -0.27600
C1442       C  0.38723557  0.75916625  0.12928154     0.02000
C1443       C  0.36731848  0.76974677  0.12538047     0.30100
C1444       C  0.36664296  0.79242814  0.12314996    -0.19400
C1445       C  0.38575183  0.80502081  0.12463160    -0.28800
C1446       C  0.40574146  0.79426644  0.12883039     0.44100
C1447       C  0.38820894  0.73511808  0.13028437     0.05300
O1448       O  0.34841119  0.75798707  0.12353247    -0.57300
H1449       H  0.35105945  0.80012662  0.12007834     0.18300
O1450       O  0.42474808  0.80575647  0.13125970    -0.64000
H1451       H  0.42176754  0.76348510  0.13403494     0.16700
C1452       C  0.39502913  0.72313001  0.11205696     0.29000
C1453       C  0.39369748  0.70038880  0.11220683    -0.24900
C1454       C  0.38592179  0.68911759  0.13057931    -0.24200
C1455       C  0.38001481  0.70119762  0.14925879     0.40400
C1456       C  0.38093215  0.72405249  0.14888481    -0.26700
O1457       O  0.40201369  0.73358115  0.09360295    -0.58500
H1458       H  0.39857548  0.69156463  0.09773158     0.16000
O1459       O  0.37224658  0.69097905  0.16752348    -0.60000
H1460       H  0.37560377  0.73318900  0.16300718     0.14500
H1461       H  0.43160558  0.80570493  0.11666482     0.46300
H1462       H  0.41806330  0.73455791  0.09514107     0.41700
H1463       H  0.38495184  0.68981942  0.17745005     0.45200
H1464       H  0.34751040  0.75382071  0.10795450     0.36700
C1465       C  0.39414762  0.77391618  0.86709137    -0.27600
C1466       C  0.37438397  0.76316648  0.86316430     0.02000
C1467       C  0.35543316  0.77549067  0.85953272     0.30100
C1468       C  0.35627723  0.79825453  0.86052561    -0.19400
C1469       C  0.37596129  0.80918298  0.86500598    -0.28800
C1470       C  0.39509247  0.79670595  0.86795400     0.44100
C1471       C  0.37356915  0.73909780  0.86405318     0.05300
O1472       O  0.33595856  0.76541225  0.85522149    -0.57300
H1473       H  0.34138829  0.80735564  0.85786121     0.18300
O1474       O  0.41462635  0.80648054  0.87263163    -0.64000
H1475       H  0.40883042  0.76456039  0.87004587     0.16700
C1476       C  0.38517272  0.72631576  0.84901297     0.29000
C1477       C  0.38507600  0.70358549  0.85090326    -0.24900
C1478       C  0.37393877  0.69331121  0.86804448    -0.24200
C1479       C  0.36208566  0.70613428  0.88293312     0.40400
C1480       C  0.36179641  0.72884813  0.88072863    -0.26700
O1481       O  0.39626031  0.73590390  0.83216841    -0.58500
H1482       H  0.39414972  0.69398978  0.83919961     0.16000
O1483       O  0.35013779  0.69659628  0.89920956    -0.60000
H1484       H  0.35270053  0.73854099  0.89233415     0.14500
H1485       H  0.42229881  0.80758636  0.85844468     0.46300
H1486       H  0.41168607  0.73637436  0.83695978     0.41700
H1487       H  0.35925785  0.69788876  0.91248709     0.45200
H1488       H  0.33580060  0.76316536  0.83923414     0.36700
C1489       C  0.36203900  0.86607386  0.97204443    -0.27600
C1490       C  0.38053667  0.87436721  0.98264673     0.02000
C1491       C  0.39795607  0.88233803  0.97006146     0.30100
C1492       C  0.39669190  0.88193649  0.94728354    -0.19400
C1493       C  0.37804658  0.87389756  0.93662329    -0.28800
C1494       C  0.36068975  0.86577783  0.94928615     0.44100
C1495       C  0.38147303  0.87433540  0.00680946     0.05300
O1496       O  0.41615898  0.89083539  0.97986212    -0.57300
H1497       H  0.41021424  0.88834871  0.93794704     0.18300
O1498       O  0.34241264  0.85726846  0.93964843    -0.64000
H1499       H  0.34865171  0.85952073  0.98147466     0.16700
C1500       C  0.36482656  0.88410208  0.01918649     0.29000
C1501       C  0.36532351  0.88288148  0.04194429    -0.24900
C1502       C  0.38238955  0.87215520  0.05278719    -0.24200
C1503       C  0.39926273  0.86269670  0.04042197     0.40400
C1504       C  0.39870014  0.86381486  0.01761953    -0.26700
O1505       O  0.34846805  0.89560781  0.00917193    -0.58500
H1506       H  0.35244007  0.89065749  0.05116288     0.16000
O1507       O  0.41612733  0.85194398  0.05040141    -0.60000
H1508       H  0.41153727  0.85605882  0.00832645     0.14500
H1509       H  0.34563063  0.84156489  0.93762723     0.46300
H1510       H  0.33533548  0.88630001  0.01031419     0.41700
H1511       H  0.41119919  0.83662456  0.05168830     0.45200
H1512       H  0.41295447  0.90654757  0.98182298     0.36700
C1513       C  0.34983186  0.22816216  0.87084837    -0.27600
C1514       C  0.36940428  0.23979817  0.87128603     0.02000
C1515       C  0.38930588  0.22855468  0.87151186     0.30100
C1516       C  0.38947205  0.20577395  0.87184705    -0.19400
C1517       C  0.36986687  0.19386677  0.87176333    -0.28800
C1518       C  0.34989324  0.20537877  0.87101405     0.44100
C1519       C  0.36884934  0.26373406  0.87192816     0.05300
O1520       O  0.40864684  0.23972624  0.87204589    -0.57300
H1521       H  0.40502857  0.19745469  0.87235647     0.18300
O1522       O  0.33032843  0.19462969  0.87010714    -0.64000
H1523       H  0.33443654  0.23680645  0.87044688     0.16700
C1524       C  0.37186279  0.27601425  0.85290617     0.29000
C1525       C  0.37115010  0.29874877  0.85385833    -0.24900
C1526       C  0.36745363  0.30957873  0.87372230    -0.24200
C1527       C  0.36445966  0.29705598  0.89281967     0.40400
C1528       C  0.36512822  0.27431161  0.89175837    -0.26700
O1529       O  0.37574384  0.26591955  0.83336710    -0.58500
H1530       H  0.37368726  0.30788954  0.83898890     0.16000
O1531       O  0.36112421  0.30677042  0.91265212    -0.60000
H1532       H  0.36283031  0.26486724  0.90648816     0.14500
H1533       H  0.32505150  0.19415298  0.88536216     0.46300
H1534       H  0.36113917  0.26339249  0.82693227     0.41700
H1535       H  0.34507225  0.30774582  0.91423099     0.45200
H1536       H  0.41275396  0.24177460  0.85657196     0.36700
C1537       C  0.35846250  0.02479519  0.88657892    -0.27600
C1538       C  0.37332651  0.01378629  0.87318372     0.02000
C1539       C  0.38796716  0.02587481  0.86033766     0.30100
C1540       C  0.38787095  0.04866844  0.86133051    -0.19400
C1541       C  0.37308490  0.05969388  0.87481615    -0.28800
C1542       C  0.35830095  0.04757470  0.88750920     0.44100
C1543       C  0.37353828  0.98967559  0.87291705     0.05300
O1544       O  0.40164712  0.01554031  0.84600576    -0.57300
H1545       H  0.39903039  0.05775619  0.85112569     0.18300
O1546       O  0.34385424  0.05782154  0.90111258    -0.64000
H1547       H  0.34714808  0.01566767  0.89657449     0.16700
C1548       C  0.39228963  0.97802050  0.87911125     0.29000
C1549       C  0.39231479  0.95524214  0.87849434    -0.24900
C1550       C  0.37361780  0.94363930  0.87215128    -0.24200
C1551       C  0.35467869  0.95540129  0.86631284     0.40400
C1552       C  0.35475148  0.97821050  0.86681375    -0.26700
O1553       O  0.41060218  0.98875396  0.88609478    -0.58500
H1554       H  0.40696513  0.94663629  0.88329042     0.16000
O1555       O  0.33606691  0.94485256  0.85984934    -0.60000
H1556       H  0.34016566  0.98700481  0.86213855     0.14500
H1557       H  0.35128460  0.05840058  0.91545806     0.46300
H1558       H  0.40815310  0.99153864  0.90181226     0.41700
H1559       H  0.33735939  0.94340099  0.84381674     0.45200
H1560       H  0.41647773  0.01719719  0.85222622     0.36700
C1561       C  0.39369776  0.22449136  0.13641756    -0.27600
C1562       C  0.37481609  0.23516092  0.12914342     0.02000
C1563       C  0.35718559  0.22279068  0.12139945     0.30100
C1564       C  0.35860957  0.20012577  0.12069779    -0.19400
C1565       C  0.37754237  0.18926418  0.12764058    -0.28800
C1566       C  0.39517346  0.20167830  0.13571071     0.44100
C1567       C  0.37382593  0.25921152  0.12842352     0.05300
O1568       O  0.33850514  0.23277669  0.11425310    -0.57300
H1569       H  0.34483339  0.19103578  0.11443878     0.18300
O1570       O  0.41386863  0.19176886  0.14291399    -0.64000
H1571       H  0.40743420  0.23388694  0.14230718     0.16700
C1572       C  0.37432145  0.27185172  0.14750540     0.29000
C1573       C  0.37250653  0.29459343  0.14615602    -0.24900
C1574       C  0.37040384  0.30507160  0.12583719    -0.24200
C1575       C  0.36968524  0.29215625  0.10678780     0.40400
C1576       C  0.37150191  0.26952720  0.10822546    -0.26700
O1577       O  0.37582180  0.26207801  0.16753793    -0.58500
H1578       H  0.37295970  0.30402004  0.16106108     0.16000
O1579       O  0.36742941  0.30139110  0.08657851    -0.60000
H1580       H  0.37104174  0.25991627  0.09342552     0.14500
H1581       H  0.41180487  0.18987682  0.15882574     0.46300
H1582       H  0.39150184  0.26259301  0.17135891     0.41700
H1583       H  0.35152933  0.30128783  0.08361084     0.45200
H1584       H  0.32936163  0.23455736  0.12743812     0.36700
C1585       C  0.39372449  0.02013336  0.13098282    -0.27600
C1586       C  0.37583510  0.00914228  0.12196253     0.02000
C1587       C  0.35799597  0.02123799  0.11412070     0.30100
C1588       C  0.35846202  0.04402027  0.11489486    -0.19400
C1589       C  0.37668638  0.05508602  0.12328360    -0.28800
C1590       C  0.39422620  0.04288151  0.13177539     0.44100
C1591       C  0.37616703  0.98507486  0.12057254     0.05300
O1592       O  0.34022207  0.01095790  0.10529539    -0.57300
H1593       H  0.34470813  0.05304329  0.10847536     0.18300
O1594       O  0.41187349  0.05295970  0.14107892    -0.64000
H1595       H  0.40734611  0.01100227  0.13753204     0.16700
C1596       C  0.39300919  0.97425365  0.10940577     0.29000
C1597       C  0.39349221  0.95147245  0.10876141    -0.24900
C1598       C  0.37727175  0.93914194  0.11911719    -0.24200
C1599       C  0.36031153  0.95001559  0.13017658     0.40400
C1600       C  0.35983227  0.97281015  0.13078755    -0.26700
O1601       O  0.40864808  0.98586496  0.09846445    -0.58500
H1602       H  0.40653926  0.94342721  0.10001895     0.16000
O1603       O  0.34445611  0.93855766  0.14094903    -0.60000
H1604       H  0.34690650  0.98094444  0.13962923     0.14500
H1605       H  0.40765497  0.05555539  0.15645530     0.46300
H1606       H  0.42178615  0.98523081  0.10783115     0.41700
H1607       H  0.35059108  0.93561825  0.15561493     0.45200
H1608       H  0.34381856  0.00892236  0.08968386     0.36700
C1609       C  0.36152099  0.11521017  0.97595712    -0.27600
C1610       C  0.37884226  0.12525802  0.98698306     0.02000
C1611       C  0.39543047  0.13539373  0.97473675     0.30100
C1612       C  0.39423171  0.13571484  0.95191092    -0.19400
C1613       C  0.37642228  0.12633352  0.94097672    -0.28800
C1614       C  0.36015045  0.11578306  0.95325717     0.44100
C1615       C  0.37909807  0.12524412  0.01120507     0.05300
O1616       O  0.41266361  0.14536103  0.98489529    -0.57300
H1617       H  0.40700101  0.14375766  0.94277757     0.18300
O1618       O  0.34291019  0.10569272  0.94323980    -0.64000
H1619       H  0.34896292  0.10675811  0.98500277     0.16700
C1620       C  0.36065741  0.13197251  0.02310906     0.29000
C1621       C  0.36090793  0.13140389  0.04589254    -0.24900
C1622       C  0.37937660  0.12418129  0.05731639    -0.24200
C1623       C  0.39785131  0.11740460  0.04538811     0.40400
C1624       C  0.39759771  0.11800040  0.02256518    -0.26700
O1625       O  0.34260029  0.13997298  0.01260232    -0.58500
H1626       H  0.34659304  0.13687363  0.05463639     0.16000
O1627       O  0.41615483  0.10988335  0.05578752    -0.60000
H1628       H  0.41179195  0.11241030  0.01370303     0.14500
H1629       H  0.34776797  0.09047045  0.94082086     0.46300
H1630       H  0.33124593  0.12862552  0.01428949     0.41700
H1631       H  0.41388016  0.09396827  0.05738065     0.45200
H1632       H  0.40760502  0.16037285  0.98805397     0.36700
C1633       C  0.87337028  0.98072463  0.64455723    -0.27600
C1634       C  0.88065108  0.99110165  0.62556720     0.02000
C1635       C  0.88748887  0.97844598  0.60775767     0.30100
C1636       C  0.88655925  0.95570105  0.60895767    -0.19400
C1637       C  0.87886968  0.94521612  0.62779737    -0.28800
C1638       C  0.87234754  0.95799236  0.64576315     0.44100
C1639       C  0.88059628  0.01515892  0.62451680     0.05300
O1640       O  0.89589195  0.98818593  0.58948571    -0.57300
H1641       H  0.89205313  0.94625146  0.59510968     0.18300
O1642       O  0.86464729  0.94852491  0.66446135    -0.64000
H1643       H  0.86803872  0.99033087  0.65836859     0.16700
C1644       C  0.86802179  0.02624654  0.60883767     0.29000
C1645       C  0.86726391  0.04900817  0.60887337    -0.24900
C1646       C  0.87850878  0.06099501  0.62475844    -0.24200
C1647       C  0.89139446  0.04991047  0.64021565     0.40400
C1648       C  0.89229673  0.02715146  0.64005465    -0.26700
O1649       O  0.85583147  0.01497641  0.59387994    -0.58500
H1650       H  0.85722252  0.05727656  0.59692949     0.16000
O1651       O  0.90320559  0.06114652  0.65550856    -0.60000
H1652       H  0.90208668  0.01880334  0.65215155     0.14500
H1653       H  0.84869468  0.94711326  0.66222181     0.46300
H1654       H  0.84182809  0.01186167  0.60129448     0.41700
H1655       H  0.91713819  0.06485243  0.64822651     0.45200
H1656       H  0.88498826  0.98565840  0.57781545     0.36700
C1657       C  0.97489752  0.12625381  0.64064405    -0.27600
C1658       C  0.98520344  0.13182343  0.62105653     0.02000
C1659       C  0.97242299  0.13679491  0.60267282     0.30100
C1660       C  0.94968385  0.13634710  0.60414176    -0.19400
C1661       C  0.93930091  0.13112537  0.62387715    -0.28800
C1662       C  0.95220718  0.12588911  0.64219387     0.44100
C1663       C  0.00928698  0.13250952  0.62018484     0.05300
O1664       O  0.98197827  0.14233582  0.58326656    -0.57300
H1665       H  0.94017509  0.14031464  0.58980622     0.18300
O1666       O  0.94291268  0.12021304  0.66168713    -0.64000
H1667       H  0.98451806  0.12195931  0.65481146     0.16700
C1668       C  0.02115115  0.14497072  0.63535849     0.29000
C1669       C  0.04391609  0.14473207  0.63498637    -0.24900
C1670       C  0.05518376  0.13236424  0.61945449    -0.24200
C1671       C  0.04334900  0.12009262  0.60408197     0.40400
C1672       C  0.02054523  0.12019224  0.60455493    -0.26700
O1673       O  0.01058373  0.15808172  0.65005451    -0.58500
H1674       H  0.05279702  0.15450262  0.64670969     0.16000
O1675       O  0.05388701  0.10756455  0.58888605    -0.60000
H1676       H  0.01163221  0.11031758  0.59294912     0.14500
H1677       H  0.94118075  0.10416129  0.66103765     0.46300
H1678       H  0.01228693  0.15076334  0.66433647     0.41700
H1679       H  0.05616752  0.09324956  0.59602886     0.45200
H1680       H  0.98475408  0.15821275  0.58429511     0.36700
C1681       C  0.97788681  0.87785729  0.60770889    -0.27600
C1682       C  0.98964572  0.87535637  0.62710124     0.02000
C1683       C  0.97827766  0.87292738  0.64686221     0.30100
C1684       C  0.95547290  0.87344356  0.64703041    -0.19400
C1685       C  0.94361776  0.87611592  0.62759132    -0.28800
C1686       C  0.95514721  0.87806248  0.60775917     0.44100
C1687       C  0.01372976  0.87634660  0.62648548     0.05300
O1688       O  0.98929932  0.87010701  0.66610155    -0.57300
H1689       H  0.94708273  0.87170184  0.66244279     0.18300
O1690       O  0.94446930  0.88091615  0.58833414    -0.64000
H1691       H  0.98638794  0.88012075  0.59242253     0.16700
C1692       C  0.02575965  0.86298768  0.61222034     0.29000
C1693       C  0.04842202  0.86516363  0.61099942    -0.24900
C1694       C  0.05936558  0.88035324  0.62407966    -0.24200
C1695       C  0.04737776  0.89363313  0.63840298     0.40400
C1696       C  0.02471947  0.89162545  0.63947159    -0.26700
O1697       O  0.01557758  0.84715985  0.60014551    -0.58500
H1698       H  0.05752126  0.85459431  0.60018353     0.16000
O1699       O  0.05761478  0.90886335  0.65115468    -0.60000
H1700       H  0.01565486  0.90229390  0.65021197     0.14500
H1701       H  0.94349630  0.86615301  0.58182817     0.46300
H1702       H  0.01598493  0.85243249  0.58489757     0.41700
H1703       H  0.05876453  0.92205001  0.64189474     0.45200
H1704       H  0.99236325  0.85426606  0.66694568     0.36700
C1705       C  0.13256907  0.03146428  0.60158731    -0.27600
C1706       C  0.12420597  0.01970808  0.61929910     0.02000
C1707       C  0.11526157  0.03114841  0.63706574     0.30100
C1708       C  0.11502365  0.05392445  0.63705240    -0.19400
C1709       C  0.12324484  0.06571666  0.61927450    -0.28800
C1710       C  0.13207307  0.05424321  0.60141726     0.44100
C1711       C  0.12511944  0.99556212  0.61927798     0.05300
O1712       O  0.10650661  0.02020466  0.65445081    -0.57300
H1713       H  0.10805263  0.06236662  0.65088664     0.18300
O1714       O  0.14056765  0.06506979  0.58383021    -0.64000
H1715       H  0.13983473  0.02296193  0.58794997     0.16700
C1716       C  0.11673075  0.98334589  0.60175686     0.29000
C1717       C  0.11726127  0.96054892  0.60246289    -0.24900
C1718       C  0.12604162  0.94955030  0.62052573    -0.24200
C1719       C  0.13481154  0.96183740  0.63786062     0.40400
C1720       C  0.13441963  0.98460378  0.63705681    -0.26700
O1721       O  0.10701065  0.99352801  0.58438539    -0.58500
H1722       H  0.11035903  0.95146681  0.58899314     0.16000
O1723       O  0.14446415  0.95180968  0.65534731    -0.60000
H1724       H  0.14145339  0.99376180  0.65040997     0.14500
H1725       H  0.15601175  0.06791595  0.58767020     0.46300
H1726       H  0.11751276  0.99215870  0.57221025     0.41700
H1727       H  0.13318245  0.95167321  0.66690232     0.45200
H1728       H  0.09087575  0.01829627  0.65080163     0.36700
C1729       C  0.64127224  0.86175970  0.22527749    -0.27600
C1730       C  0.62203724  0.86688967  0.23643591     0.02000
C1731       C  0.60285555  0.87088990  0.22451859     0.30100
C1732       C  0.60321626  0.87012849  0.20174147    -0.19400
C1733       C  0.62259087  0.86538481  0.19045492    -0.28800
C1734       C  0.64166123  0.86084172  0.20253946     0.44100
C1735       C  0.62238278  0.86838668  0.26048779     0.05300
O1736       O  0.58371150  0.87570363  0.23497169    -0.57300
H1737       H  0.58833105  0.87363015  0.19291331     0.18300
O1738       O  0.66088910  0.85576001  0.19237927    -0.64000
H1739       H  0.65618290  0.85875236  0.23424990     0.16700
C1740       C  0.62916887  0.85061878  0.27324852     0.29000
C1741       C  0.63019101  0.85258144  0.29592431    -0.24900
C1742       C  0.62479006  0.87226627  0.30629742    -0.24200
C1743       C  0.61780145  0.89004607  0.29341278     0.40400
C1744       C  0.61657712  0.88795128  0.27073144    -0.26700
O1745       O  0.63412710  0.83103039  0.26370578    -0.58500
H1746       H  0.63535167  0.83860707  0.30538347     0.16000
O1747       O  0.61150175  0.90932915  0.30277427    -0.60000
H1748       H  0.61133721  0.90176645  0.26106712     0.14500
H1749       H  0.66066594  0.83968745  0.19070425     0.46300
H1750       H  0.65024753  0.83011450  0.26394975     0.41700
H1751       H  0.62439114  0.91900578  0.30165012     0.45200
H1752       H  0.57736816  0.86139837  0.23897314     0.36700
C1753       C  0.63188330  0.85369975  0.72445828    -0.27600
C1754       C  0.62684649  0.87244306  0.73641095     0.02000
C1755       C  0.62149246  0.89178344  0.72544895     0.30100
C1756       C  0.62153984  0.89233705  0.70269747    -0.19400
C1757       C  0.62678760  0.87365820  0.69050495    -0.28800
C1758       C  0.63202075  0.85418964  0.70167017     0.44100
C1759       C  0.62772698  0.87190537  0.76036631     0.05300
O1760       O  0.61626004  0.91025384  0.73687370    -0.57300
H1761       H  0.61733876  0.90744528  0.69460617     0.18300
O1762       O  0.63749697  0.83559426  0.69057298    -0.64000
H1763       H  0.63608115  0.83874533  0.73284971     0.16700
C1764       C  0.61148216  0.86128526  0.77244930     0.29000
C1765       C  0.61230739  0.86156731  0.79520839    -0.24900
C1766       C  0.62947558  0.87204426  0.80617927    -0.24200
C1767       C  0.64580768  0.88258803  0.79395126     0.40400
C1768       C  0.64480636  0.88248199  0.77119786    -0.26700
O1769       O  0.59439713  0.85120925  0.76215172    -0.58500
H1770       H  0.59957164  0.85341363  0.80429240     0.16000
O1771       O  0.66256728  0.89340332  0.80403078    -0.60000
H1772       H  0.65733883  0.89076597  0.76194494     0.14500
H1773       H  0.65357221  0.83616367  0.68904080     0.46300
H1774       H  0.59910252  0.83588662  0.76017956     0.41700
H1775       H  0.65721962  0.90851395  0.80607510     0.45200
H1776       H  0.60050897  0.90885723  0.74018150     0.36700
C1777       C  0.72829963  0.89887371  0.61996082    -0.27600
C1778       C  0.73951940  0.87957240  0.62467326     0.02000
C1779       C  0.72783516  0.86034156  0.62854609     0.30100
C1780       C  0.70508674  0.86060167  0.62801383    -0.19400
C1781       C  0.69358331  0.87993562  0.62351039    -0.28800
C1782       C  0.70546701  0.89920750  0.61938931     0.44100
C1783       C  0.76347764  0.87957451  0.62561279     0.05300
O1784       O  0.73853077  0.84131212  0.63333699    -0.57300
H1785       H  0.69644735  0.84558476  0.63133583     0.18300
O1786       O  0.69503720  0.91827078  0.61419241    -0.64000
H1787       H  0.73729056  0.91370958  0.61672431     0.16700
C1788       C  0.77581441  0.87335022  0.60742853     0.29000
C1789       C  0.79854682  0.87323568  0.60867048    -0.24900
C1790       C  0.80934005  0.87920150  0.62801304    -0.24200
C1791       C  0.79680742  0.88519900  0.64633624     0.40400
C1792       C  0.77402847  0.88549582  0.64495307    -0.26700
O1793       O  0.76576452  0.86709109  0.58847351    -0.58500
H1794       H  0.80772997  0.86831401  0.59443786     0.16000
O1795       O  0.80658591  0.89142744  0.66543638    -0.60000
H1796       H  0.76454457  0.89027089  0.65904314     0.14500
H1797       H  0.69466590  0.92677884  0.62792184     0.46300
H1798       H  0.76434442  0.88061951  0.57977005     0.41700
H1799       H  0.80621726  0.87830524  0.67486576     0.45200
H1800       H  0.74134326  0.83433426  0.61905242     0.36700
C1801       C  0.63565018  0.86445677  0.52134389    -0.27600
C1802       C  0.62583372  0.88191396  0.51039593     0.02000
C1803       C  0.61662124  0.89904596  0.52255355     0.30100
C1804       C  0.61711791  0.89834775  0.54539872    -0.19400
C1805       C  0.62664283  0.88063507  0.55637862    -0.28800
C1806       C  0.63611017  0.86369367  0.54407597     0.44100
C1807       C  0.62498820  0.88154928  0.48629235     0.05300
O1808       O  0.60609243  0.91587433  0.51226079    -0.57300
H1809       H  0.60958341  0.91144273  0.55451555     0.18300
O1810       O  0.64649349  0.84661544  0.55408090    -0.64000
H1811       H  0.64304206  0.85131032  0.51217451     0.16700
C1812       C  0.63457056  0.89817609  0.47375426     0.29000
C1813       C  0.63414583  0.89695209  0.45098364    -0.24900
C1814       C  0.62474071  0.87897254  0.44039237    -0.24200
C1815       C  0.61525397  0.86228971  0.45298329     0.40400
C1816       C  0.61543656  0.86367417  0.47571605    -0.26700
O1817       O  0.64492909  0.91535764  0.48358076    -0.58500
H1818       H  0.64173850  0.90981008  0.44158983     0.16000
O1819       O  0.60560714  0.84463237  0.44326421    -0.60000
H1820       H  0.60808006  0.85071639  0.48516786     0.14500
H1821       H  0.63579616  0.83450878  0.55399059     0.46300
H1822       H  0.65993667  0.91013739  0.48654285     0.41700
H1823       H  0.59028240  0.84907269  0.44065176     0.45200
H1824       H  0.61558500  0.92878614  0.51432313     0.36700
C1825       C  0.27338524  0.86277822  0.62438360    -0.27600
C1826       C  0.26321728  0.88201992  0.61755282     0.02000
C1827       C  0.27603232  0.89976560  0.61084699     0.30100
C1828       C  0.29881695  0.89809887  0.61118828    -0.19400
C1829       C  0.30910804  0.87874946  0.61797706    -0.28800
C1830       C  0.29607102  0.86102062  0.62466177     0.44100
C1831       C  0.23920783  0.88338837  0.61828596     0.05300
O1832       O  0.26643873  0.91906642  0.60490994    -0.57300
H1833       H  0.30842067  0.91199996  0.60611926     0.18300
O1834       O  0.30525549  0.84194614  0.63180105    -0.64000
H1835       H  0.26363375  0.84904511  0.62965540     0.16700
C1836       C  0.22682139  0.88608286  0.59920553     0.29000
C1837       C  0.20405446  0.88610947  0.60031008    -0.24900
C1838       C  0.19325466  0.88337632  0.62033117    -0.24200
C1839       C  0.20583124  0.88085738  0.63947402     0.40400
C1840       C  0.22856653  0.88073297  0.63827350    -0.26700
O1841       O  0.23679687  0.88823851  0.57934974    -0.58500
H1842       H  0.19486297  0.88809655  0.58537199     0.16000
O1843       O  0.19618135  0.87787208  0.65938758    -0.60000
H1844       H  0.23797987  0.87846983  0.65304641     0.14500
H1845       H  0.30683152  0.84372505  0.64777841     0.46300
H1846       H  0.23897980  0.87314501  0.57404576     0.41700
H1847       H  0.19564526  0.89257288  0.66608021     0.45200
H1848       H  0.26765295  0.91968419  0.58881985     0.36700
C1849       C  0.35460828  0.87794315  0.76749065    -0.27600
C1850       C  0.37426691  0.88082589  0.75627636     0.02000
C1851       C  0.39365704  0.88372357  0.76810919     0.30100
C1852       C  0.39326969  0.88332154  0.79088335    -0.19400
C1853       C  0.37364745  0.88003438  0.80228860    -0.28800
C1854       C  0.35414295  0.87754393  0.79027905     0.44100
C1855       C  0.37444633  0.88014695  0.73221950     0.05300
O1856       O  0.41312490  0.88662238  0.75754908    -0.57300
H1857       H  0.40847831  0.88540682  0.79960242     0.18300
O1858       O  0.33451839  0.87468833  0.80053992    -0.64000
H1859       H  0.33954494  0.87588292  0.75850279     0.16700
C1860       C  0.36840817  0.86108170  0.72109272     0.29000
C1861       C  0.36888721  0.86053732  0.69833925    -0.24900
C1862       C  0.37509657  0.87897044  0.68623507    -0.24200
C1863       C  0.38095683  0.89817671  0.69749755     0.40400
C1864       C  0.38077255  0.89856234  0.72031398    -0.26700
O1865       O  0.36285274  0.84262079  0.73238150    -0.58500
H1866       H  0.36433380  0.84556927  0.69017906     0.16000
O1867       O  0.38752818  0.91645067  0.68647586    -0.60000
H1868       H  0.38547940  0.91332822  0.72876220     0.14500
H1869       H  0.33229585  0.85866794  0.80105821     0.46300
H1870       H  0.34671309  0.84230214  0.73230813     0.41700
H1871       H  0.37430269  0.92566631  0.68528237     0.45200
H1872       H  0.41878493  0.87172000  0.75492480     0.36700
C1873       C  0.52342034  0.88800388  0.63194011    -0.27600
C1874       C  0.51336237  0.86937202  0.62330346     0.02000
C1875       C  0.52642418  0.85225389  0.61544877     0.30100
C1876       C  0.54918251  0.85416024  0.61593051    -0.19400
C1877       C  0.55928782  0.87301084  0.62417706    -0.28800
C1878       C  0.54612390  0.88988540  0.63253043     0.44100
C1879       C  0.48926993  0.86882071  0.62151385     0.05300
O1880       O  0.51710018  0.83424413  0.60604672    -0.57300
H1881       H  0.55892342  0.84101025  0.60932831     0.18300
O1882       O  0.55519803  0.90832909  0.64127883    -0.64000
H1883       H  0.51356110  0.90124916  0.63818222     0.16700
C1884       C  0.47673268  0.85222572  0.63121194     0.29000
C1885       C  0.45391972  0.85301153  0.63006302    -0.24900
C1886       C  0.44328497  0.87042673  0.61963744    -0.24200
C1887       C  0.45592987  0.88668571  0.60948217     0.40400
C1888       C  0.47864721  0.88583016  0.61056931    -0.26700
O1889       O  0.48654925  0.83554722  0.64238004    -0.58500
H1890       H  0.44453180  0.84031569  0.63792868     0.16000
O1891       O  0.44629199  0.90350495  0.59836504    -0.60000
H1892       H  0.48806902  0.89858555  0.60282921     0.14500
H1893       H  0.55744410  0.90493500  0.65691847     0.46300
H1894       H  0.48814397  0.84093812  0.65752036     0.41700
H1895       H  0.44423216  0.89799745  0.58331268     0.45200
H1896       H  0.52003588  0.82205481  0.61624699     0.36700
C1897       C  0.36045726  0.86895505  0.22131482    -0.27600
C1898       C  0.37963187  0.87303599  0.23297660     0.02000
C1899       C  0.39902698  0.87742088  0.22164632     0.30100
C1900       C  0.39904189  0.87759991  0.19884335    -0.19400
C1901       C  0.37981803  0.87353828  0.18701450    -0.28800
C1902       C  0.36038458  0.86916023  0.19856943     0.44100
C1903       C  0.37912267  0.87219229  0.25698608     0.05300
O1904       O  0.41820588  0.88051233  0.23272951    -0.57300
H1905       H  0.41421868  0.88079727  0.19044585     0.18300
O1906       O  0.34118951  0.86498154  0.18790582    -0.64000
H1907       H  0.34543493  0.86555210  0.22992994     0.16700
C1908       C  0.38401342  0.89067762  0.26957963     0.29000
C1909       C  0.38283360  0.88958823  0.29228473    -0.24900
C1910       C  0.37672368  0.87018014  0.30280648    -0.24200
C1911       C  0.37175469  0.85167841  0.29005983     0.40400
C1912       C  0.37282946  0.85287006  0.26735208    -0.26700
O1913       O  0.38968502  0.90996051  0.25984376    -0.58500
H1914       H  0.38678922  0.90400454  0.30165972     0.16000
O1915       O  0.36522265  0.83252897  0.29952056    -0.60000
H1916       H  0.36880039  0.83860503  0.25776326     0.14500
H1917       H  0.34053616  0.84889277  0.18651784     0.46300
H1918       H  0.37568656  0.91724999  0.25639025     0.41700
H1919       H  0.37852005  0.82334599  0.30015175     0.45200
H1920       H  0.42149524  0.89625885  0.23131259     0.36700
C1921       C  0.52511332  0.88066916  0.35391422    -0.27600
C1922       C  0.51368498  0.86725523  0.36847615     0.02000
C1923       C  0.52543106  0.85459315  0.38363175     0.30100
C1924       C  0.54818834  0.85593669  0.38443224    -0.19400
C1925       C  0.55944039  0.87012066  0.37052257    -0.28800
C1926       C  0.54781312  0.88216514  0.35487092     0.44100
C1927       C  0.48953472  0.86715547  0.36816717     0.05300
O1928       O  0.51479938  0.84127836  0.39806494    -0.57300
H1929       H  0.55701435  0.84637334  0.39637138     0.18300
O1930       O  0.55851916  0.89523224  0.34025782    -0.64000
H1931       H  0.51638340  0.89004916  0.34177381     0.16700
C1932       C  0.47774432  0.88671406  0.37014610     0.29000
C1933       C  0.45496566  0.88634022  0.37044486    -0.24900
C1934       C  0.44343178  0.86662837  0.36859224    -0.24200
C1935       C  0.45533354  0.84705140  0.36623645     0.40400
C1936       C  0.47815584  0.84744828  0.36614098    -0.26700
O1937       O  0.48837878  0.90619315  0.37282425    -0.58500
H1938       H  0.44635136  0.90162493  0.37232680     0.16000
O1939       O  0.44493714  0.82738972  0.36421724    -0.60000
H1940       H  0.48701699  0.83228766  0.36435057     0.14500
H1941       H  0.56300250  0.88537916  0.32825645     0.46300
H1942       H  0.48701943  0.91378374  0.35864632     0.41700
H1943       H  0.44345246  0.82499655  0.34830608     0.45200
H1944       H  0.51194622  0.85050081  0.41101437     0.36700
C1945       C  0.36682930  0.85032736  0.47131116    -0.27600
C1946       C  0.37817365  0.86674668  0.48245836     0.02000
C1947       C  0.38991136  0.88241686  0.47055657     0.30100
C1948       C  0.38935129  0.88213243  0.44780388    -0.19400
C1949       C  0.37750393  0.86612060  0.43661431    -0.28800
C1950       C  0.36645717  0.84990384  0.44852836     0.44100
C1951       C  0.37736035  0.86768728  0.50649427     0.05300
O1952       O  0.40265362  0.89748905  0.48108716    -0.57300
H1953       H  0.39842249  0.89435390  0.43887802     0.18300
O1954       O  0.35486466  0.83388141  0.43812016    -0.64000
H1955       H  0.35785287  0.83809188  0.48031062     0.16700
C1956       C  0.37006351  0.88660715  0.51719530     0.29000
C1957       C  0.37021005  0.88760178  0.53990130    -0.24900
C1958       C  0.37700732  0.86966914  0.55236710    -0.24200
C1959       C  0.38376558  0.85048383  0.54162417     0.40400
C1960       C  0.38384510  0.84960565  0.51884929    -0.26700
O1961       O  0.36250614  0.90415405  0.50560131    -0.58500
H1962       H  0.36462414  0.90237360  0.54777520     0.16000
O1963       O  0.39062767  0.83261207  0.55314645    -0.60000
H1964       H  0.38934975  0.83489712  0.51079599     0.14500
H1965       H  0.34026714  0.84027372  0.43540140     0.46300
H1966       H  0.34711960  0.90064823  0.50211529     0.41700
H1967       H  0.40646311  0.83488532  0.55548343     0.45200
H1968       H  0.39580876  0.91182676  0.47812052     0.36700
C1969       C  0.85126227  0.37748944  0.72943139    -0.27600
C1970       C  0.87080742  0.38037181  0.74087345     0.02000
C1971       C  0.89020548  0.38390683  0.72931448     0.30100
C1972       C  0.88999455  0.38394391  0.70652408    -0.19400
C1973       C  0.87048795  0.38074772  0.69483833    -0.28800
C1974       C  0.85093914  0.37770704  0.70660614     0.44100
C1975       C  0.87077633  0.37935727  0.76490358     0.05300
O1976       O  0.90956142  0.38662583  0.74016091    -0.57300
H1977       H  0.90524512  0.38638878  0.69800627     0.18300
O1978       O  0.83145147  0.37475269  0.69607170    -0.64000
H1979       H  0.83620600  0.37491908  0.73826455     0.16700
C1980       C  0.87154030  0.39846200  0.77742543     0.29000
C1981       C  0.87080514  0.39719917  0.80017246    -0.24900
C1982       C  0.86931761  0.37694514  0.81089420    -0.24200
C1983       C  0.86895653  0.35776030  0.79815370     0.40400
C1984       C  0.86949201  0.35912085  0.77536182    -0.26700
O1985       O  0.87293958  0.41845466  0.76755647    -0.58500
H1986       H  0.87134160  0.41221892  0.80940989     0.16000
O1987       O  0.86768747  0.33760897  0.80768531    -0.60000
H1988       H  0.86893185  0.34430550  0.76578463     0.14500
H1989       H  0.82964791  0.35874439  0.69492019     0.46300
H1990       H  0.85764786  0.42302792  0.76505245     0.41700
H1991       H  0.88298049  0.33249176  0.80883134     0.45200
H1992       H  0.91152221  0.40260722  0.74136426     0.36700
C1993       C  0.88971813  0.27534215  0.62741637    -0.27600
C1994       C  0.86953954  0.26479417  0.62839080     0.02000
C1995       C  0.85035334  0.27716753  0.62963560     0.30100
C1996       C  0.85150111  0.29993545  0.63005867    -0.19400
C1997       C  0.87172073  0.31074162  0.62908587    -0.28800
C1998       C  0.89095503  0.29810965  0.62762013     0.44100
C1999       C  0.86873191  0.24080362  0.62828370     0.05300
O2000       O  0.83043902  0.26711950  0.63086467    -0.57300
H2001       H  0.83647155  0.30911990  0.63115326     0.18300
O2002       O  0.91107774  0.30773601  0.62644580    -0.64000
H2003       H  0.90457568  0.26585436  0.62640128     0.16700
C2004       C  0.86594873  0.22926616  0.60874445     0.29000
C2005       C  0.86576311  0.20646967  0.60891612    -0.24900
C2006       C  0.86853057  0.19479751  0.62847001    -0.24200
C2007       C  0.87125705  0.20659135  0.64809241     0.40400
C2008       C  0.87127207  0.22939569  0.64784223    -0.26700
O2009       O  0.86339353  0.24015752  0.58940878    -0.58500
H2010       H  0.86365160  0.19794440  0.59361539     0.16000
O2011       O  0.87402671  0.19610700  0.66761993    -0.60000
H2012       H  0.87347958  0.23823542  0.66296126     0.14500
H2013       H  0.91416497  0.30913842  0.61064857     0.46300
H2014       H  0.87833359  0.24179139  0.58349212     0.41700
H2015       H  0.89002668  0.19496954  0.66960499     0.45200
H2016       H  0.82579918  0.26500940  0.61554388     0.36700
C2017       C  0.85746377  0.39182800  0.27800938    -0.27600
C2018       C  0.87327055  0.38047184  0.26607052     0.02000
C2019       C  0.88958021  0.36876863  0.27709353     0.30100
C2020       C  0.88980305  0.36830473  0.29983542    -0.19400
C2021       C  0.87365285  0.37911859  0.31187288    -0.28800
C2022       C  0.85751273  0.39115877  0.30079707     0.44100
C2023       C  0.87243310  0.38052492  0.24208039     0.05300
O2024       O  0.90568482  0.35824392  0.26572431    -0.57300
H2025       H  0.90249284  0.35918994  0.30807019     0.18300
O2026       O  0.84191407  0.40253164  0.31203754    -0.64000
H2027       H  0.84493580  0.40101469  0.26961025     0.16700
C2028       C  0.86814050  0.36121390  0.23057014     0.29000
C2029       C  0.86814193  0.36128654  0.20782134    -0.24900
C2030       C  0.87210188  0.38058315  0.19614830    -0.24200
C2031       C  0.87597653  0.40006525  0.20783037     0.40400
C2032       C  0.87614408  0.39987965  0.23062722    -0.26700
O2033       O  0.86390588  0.34216831  0.24144627    -0.58500
H2034       H  0.86486314  0.34617717  0.19931995     0.16000
O2035       O  0.88035614  0.41922451  0.19722076    -0.60000
H2036       H  0.87948208  0.41482769  0.23940410     0.14500
H2037       H  0.84886733  0.41660169  0.31587686     0.46300
H2038       H  0.84821122  0.34284697  0.24520204     0.41700
H2039       H  0.86624199  0.42708914  0.19665607     0.45200
H2040       H  0.90186660  0.34256660  0.26639649     0.36700
C2041       C  0.89755581  0.38293641  0.47974096    -0.27600
C2042       C  0.88102252  0.37205862  0.49111777     0.02000
C2043       C  0.86429859  0.36155451  0.47947546     0.30100
C2044       C  0.86377388  0.36270609  0.45678588    -0.19400
C2045       C  0.88002024  0.37395951  0.44534207    -0.28800
C2046       C  0.89714362  0.38396182  0.45697730     0.44100
C2047       C  0.88022042  0.37315818  0.51510232     0.05300
O2048       O  0.84820671  0.35037162  0.49019019    -0.57300
H2049       H  0.85066122  0.35467972  0.44810013     0.18300
O2050       O  0.91311735  0.39539606  0.44634984    -0.64000
H2051       H  0.91037365  0.39128552  0.48855585     0.16700
C2052       C  0.89717381  0.36487867  0.52810560     0.29000
C2053       C  0.89558227  0.36596379  0.55083253    -0.24900
C2054       C  0.87718516  0.37527332  0.56082540    -0.24200
C2055       C  0.86036835  0.38375347  0.54767283     0.40400
C2056       C  0.86204608  0.38273357  0.52503281    -0.26700
O2057       O  0.91486127  0.35491834  0.51876914    -0.58500
H2058       H  0.90862011  0.35921713  0.56064906     0.16000
O2059       O  0.84261237  0.39384040  0.55673078    -0.60000
H2060       H  0.84909294  0.38953502  0.51513241     0.14500
H2061       H  0.90707878  0.41025388  0.44435543     0.46300
H2062       H  0.92657447  0.36602430  0.51893813     0.41700
H2063       H  0.83086580  0.38274704  0.55653003     0.45200
H2064       H  0.85458549  0.33589468  0.49347338     0.36700
C2065       C  0.85697035  0.72936738  0.62458727    -0.27600
C2066       C  0.87635091  0.74101151  0.62748610     0.02000
C2067       C  0.89601230  0.72967487  0.63050944     0.30100
C2068       C  0.89612346  0.70689037  0.63065936    -0.19400
C2069       C  0.87671530  0.69503000  0.62783706    -0.28800
C2070       C  0.85698542  0.70658389  0.62474815     0.44100
C2071       C  0.87584794  0.76502730  0.62776244     0.05300
O2072       O  0.91521189  0.74075519  0.63331120    -0.57300
H2073       H  0.91148536  0.69851923  0.63300545     0.18300
O2074       O  0.83756851  0.69587988  0.62197797    -0.64000
H2075       H  0.84172725  0.73800453  0.62235931     0.16700
C2076       C  0.87078316  0.77691668  0.60887914     0.29000
C2077       C  0.87076905  0.79969733  0.60946372    -0.24900
C2078       C  0.87536235  0.81097346  0.62889184    -0.24200
C2079       C  0.88005104  0.79887621  0.64791400     0.40400
C2080       C  0.88045880  0.77610902  0.64715042    -0.26700
O2081       O  0.86660017  0.76640200  0.58961258    -0.58500
H2082       H  0.86710354  0.80852565  0.59463056     0.16000
O2083       O  0.88492544  0.80905443  0.66719214    -0.60000
H2084       H  0.88430624  0.76703034  0.66179412     0.14500
H2085       H  0.83576652  0.69441230  0.60599127     0.46300
H2086       H  0.85049771  0.76563154  0.58859789     0.41700
H2087       H  0.87103193  0.80936084  0.67543124     0.45200
H2088       H  0.92072027  0.74348285  0.61838383     0.36700
C2089       C  0.89478604  0.63602928  0.72786690    -0.27600
C2090       C  0.87750387  0.62626557  0.73907596     0.02000
C2091       C  0.86071699  0.61609946  0.72725668     0.30100
C2092       C  0.86113369  0.61618507  0.70442604    -0.19400
C2093       C  0.87851918  0.62582746  0.69306841    -0.28800
C2094       C  0.89555402  0.63563680  0.70506732     0.44100
C2095       C  0.87720272  0.62674965  0.76313864     0.05300
O2096       O  0.84354613  0.60658649  0.73790036    -0.57300
H2097       H  0.84790970  0.60852146  0.69559191     0.18300
O2098       O  0.91256238  0.64572334  0.69469361    -0.64000
H2099       H  0.90778735  0.64390457  0.73685617     0.16700
C2100       C  0.88208959  0.60797072  0.77525199     0.29000
C2101       C  0.88188762  0.60872026  0.79802287    -0.24900
C2102       C  0.87696115  0.62815465  0.80914936    -0.24200
C2103       C  0.87196602  0.64698074  0.79686828     0.40400
C2104       C  0.87229617  0.64618874  0.77405294    -0.26700
O2105       O  0.88718034  0.58881687  0.76494910    -0.58500
H2106       H  0.88582650  0.59403023  0.80697196     0.16000
O2107       O  0.86659375  0.66619954  0.80690080    -0.60000
H2108       H  0.86849567  0.66074574  0.76482093     0.14500
H2109       H  0.92455868  0.63488313  0.69469999     0.46300
H2110       H  0.90320718  0.58919499  0.76300789     0.41700
H2111       H  0.85054104  0.66566762  0.80873140     0.45200
H2112       H  0.84744672  0.59095683  0.73909613     0.36700
C2113       C  0.89696771  0.52564326  0.61685647    -0.27600
C2114       C  0.87684166  0.51474384  0.61727171     0.02000
C2115       C  0.85754889  0.52709057  0.61855287     0.30100
C2116       C  0.85864133  0.54980788  0.62010207    -0.19400
C2117       C  0.87877903  0.56076166  0.62035009    -0.28800
C2118       C  0.89806857  0.54839623  0.61825625     0.44100
C2119       C  0.87637724  0.49056131  0.61844831     0.05300
O2120       O  0.83762293  0.51704708  0.61992972    -0.57300
H2121       H  0.84353241  0.55880470  0.62159915     0.18300
O2122       O  0.91812884  0.55821866  0.61810318    -0.64000
H2123       H  0.91197604  0.51640767  0.61576823     0.16700
C2124       C  0.86308041  0.47790763  0.60458873     0.29000
C2125       C  0.86207251  0.45526466  0.60729948    -0.24900
C2126       C  0.87489609  0.44483182  0.62311113    -0.24200
C2127       C  0.88866701  0.45735419  0.63646687     0.40400
C2128       C  0.88923144  0.47999953  0.63417629    -0.26700
O2129       O  0.85134400  0.48740549  0.58811216    -0.58500
H2130       H  0.85171063  0.44575783  0.59661797     0.16000
O2131       O  0.90134083  0.44764568  0.65210950    -0.60000
H2132       H  0.89952164  0.48940235  0.64501016     0.14500
H2133       H  0.92146727  0.56072992  0.60249967     0.46300
H2134       H  0.86160575  0.48848126  0.57569333     0.41700
H2135       H  0.89210399  0.44718945  0.66535250     0.45200
H2136       H  0.82983910  0.52093613  0.60629350     0.36700
C2137       C  0.87889026  0.64512707  0.22822298    -0.27600
C2138       C  0.87570345  0.62536403  0.23905197     0.02000
C2139       C  0.87345201  0.60602925  0.22707561     0.30100
C2140       C  0.87449666  0.60662668  0.20434244    -0.19400
C2141       C  0.87780152  0.62643833  0.19328654    -0.28800
C2142       C  0.87998248  0.64582248  0.20553497     0.44100
C2143       C  0.87561866  0.62509081  0.26295243     0.05300
O2144       O  0.87032534  0.58650342  0.23746566    -0.57300
H2145       H  0.87269631  0.59152927  0.19539113     0.18300
O2146       O  0.88315593  0.66557344  0.19560610    -0.64000
H2147       H  0.88067740  0.66007142  0.23745033     0.16700
C2148       C  0.89512505  0.62784046  0.27454120     0.29000
C2149       C  0.89491287  0.62777876  0.29726167    -0.24900
C2150       C  0.87526194  0.62542171  0.30878282    -0.24200
C2151       C  0.85559087  0.62309456  0.29696453     0.40400
C2152       C  0.85596014  0.62267849  0.27419147    -0.26700
O2153       O  0.91454053  0.63013614  0.26373901    -0.58500
H2154       H  0.91021809  0.62974646  0.30583655     0.16000
O2155       O  0.83596227  0.62093314  0.30739554    -0.60000
H2156       H  0.84084244  0.62075699  0.26525972     0.14500
H2157       H  0.89919736  0.66736053  0.19479629     0.46300
H2158       H  0.91678694  0.64606807  0.26242373     0.41700
H2159       H  0.82980986  0.63586866  0.30798449     0.45200
H2160       H  0.88517203  0.58088280  0.24048829     0.36700
C2161       C  0.86190099  0.47852655  0.38962911    -0.27600
C2162       C  0.87775507  0.48950321  0.37737822     0.02000
C2163       C  0.89365390  0.47733471  0.36617747     0.30100
C2164       C  0.89361111  0.45457582  0.36744721    -0.19400
C2165       C  0.87755650  0.44357530  0.37944325    -0.28800
C2166       C  0.86166156  0.45577299  0.39066434     0.44100
C2167       C  0.87780176  0.51363182  0.37677473     0.05300
O2168       O  0.90910157  0.48752509  0.35368034    -0.57300
H2169       H  0.90584752  0.44548680  0.35855650     0.18300
O2170       O  0.84597642  0.44565843  0.40292460    -0.64000
H2171       H  0.84980067  0.48764864  0.39866390     0.16700
C2172       C  0.85905230  0.52535699  0.37067887     0.29000
C2173       C  0.85934935  0.54814596  0.37072929    -0.24900
C2174       C  0.87816723  0.55965594  0.37690215    -0.24200
C2175       C  0.89696192  0.54784135  0.38294851     0.40400
C2176       C  0.89665508  0.52505608  0.38281589    -0.26700
O2177       O  0.84064529  0.51466333  0.36383787    -0.58500
H2178       H  0.84480245  0.55680900  0.36571762     0.16000
O2179       O  0.91567557  0.55831358  0.38922772    -0.60000
H2180       H  0.91112777  0.51625118  0.38780138     0.14500
H2181       H  0.85252078  0.44399316  0.41761205     0.46300
H2182       H  0.83008020  0.51613644  0.37595197     0.41700
H2183       H  0.91431415  0.56021463  0.40520962     0.45200
H2184       H  0.90244575  0.48887330  0.33901508     0.36700
C2185       C  0.86299686  0.61956746  0.47790550    -0.27600
C2186       C  0.87822635  0.63289699  0.48851215     0.02000
C2187       C  0.89346796  0.64464788  0.47603300     0.30100
C2188       C  0.89349406  0.64271289  0.45330204    -0.19400
C2189       C  0.87812446  0.62948878  0.44269794    -0.28800
C2190       C  0.86276567  0.61791554  0.45519252     0.44100
C2191       C  0.87860562  0.63354660  0.51262144     0.05300
O2192       O  0.90827438  0.65817108  0.48589411    -0.57300
H2193       H  0.90526198  0.65191416  0.44391542     0.18300
O2194       O  0.84815792  0.60411056  0.44541809    -0.64000
H2195       H  0.85145159  0.61010900  0.48731161     0.16700
C2196       C  0.85985565  0.63906211  0.52460812     0.29000
C2197       C  0.86013835  0.63794960  0.54737764    -0.24900
C2198       C  0.87904093  0.63148617  0.55861697    -0.24200
C2199       C  0.89789123  0.62619565  0.54650898     0.40400
C2200       C  0.89756812  0.62737390  0.52375751    -0.26700
O2201       O  0.84113386  0.64547274  0.51420487    -0.58500
H2202       H  0.84550522  0.64223621  0.55624984     0.16000
O2203       O  0.91661526  0.61937443  0.55663892    -0.60000
H2204       H  0.91202927  0.62281801  0.51472797     0.14500
H2205       H  0.83430026  0.61239395  0.44469230     0.46300
H2206       H  0.84301216  0.66128027  0.51147177     0.41700
H2207       H  0.91524802  0.60332273  0.55769175     0.45200
H2208       H  0.90069572  0.67237187  0.48735160     0.36700
C2209       C  0.36047229  0.14244262  0.72596690    -0.27600
C2210       C  0.36583190  0.12312745  0.73687490     0.02000
C2211       C  0.37209599  0.10472265  0.72481037     0.30100
C2212       C  0.37337913  0.10593869  0.70209193    -0.19400
C2213       C  0.36876991  0.12550706  0.69105967    -0.28800
C2214       C  0.36189893  0.14376329  0.70325094     0.44100
C2215       C  0.36625951  0.12286088  0.76091324     0.05300
O2216       O  0.37664224  0.08540923  0.73511020    -0.57300
H2217       H  0.37833789  0.09156135  0.69314682     0.18300
O2218       O  0.35662754  0.16301457  0.69322542    -0.64000
H2219       H  0.35561460  0.15670182  0.73516285     0.16700
C2220       C  0.38619525  0.12123233  0.77204800     0.29000
C2221       C  0.38665437  0.12190625  0.79477565    -0.24900
C2222       C  0.36736630  0.12439771  0.80688348    -0.24200
C2223       C  0.34732234  0.12606169  0.79559752     0.40400
C2224       C  0.34692344  0.12530387  0.77277885    -0.26700
O2225       O  0.40540328  0.11933309  0.76080625    -0.58500
H2226       H  0.40227313  0.12061425  0.80290354     0.16000
O2227       O  0.32803707  0.12849035  0.80659102    -0.60000
H2228       H  0.33149448  0.12672674  0.76430023     0.14500
H2229       H  0.34081832  0.16194081  0.69002633     0.46300
H2230       H  0.40988898  0.13449176  0.75750983     0.41700
H2231       H  0.32581736  0.14445482  0.80777473     0.45200
H2232       H  0.39274316  0.08410647  0.73490713     0.36700
C2233       C  0.27096301  0.14799841  0.62299222    -0.27600
C2234       C  0.25924512  0.12848884  0.62367800     0.02000
C2235       C  0.27051025  0.10856856  0.62424422     0.30100
C2236       C  0.29334701  0.10835811  0.62384295    -0.19400
C2237       C  0.30527503  0.12793024  0.62320752    -0.28800
C2238       C  0.29373296  0.14790830  0.62298650     0.44100
C2239       C  0.23522336  0.12926898  0.62321116     0.05300
O2240       O  0.25931016  0.08924348  0.62441955    -0.57300
H2241       H  0.30169146  0.09281158  0.62404538     0.18300
O2242       O  0.30442884  0.16751037  0.62246405    -0.64000
H2243       H  0.26237185  0.16341996  0.62256764     0.16700
C2244       C  0.22288290  0.12423755  0.64179506     0.29000
C2245       C  0.20012810  0.12567023  0.64106038    -0.24900
C2246       C  0.18932024  0.13206010  0.62185651    -0.24200
C2247       C  0.20187399  0.13717793  0.60326470     0.40400
C2248       C  0.22462147  0.13594201  0.60414792    -0.26700
O2249       O  0.23292724  0.11799536  0.66075821    -0.58500
H2250       H  0.19093756  0.12158909  0.65554653     0.16000
O2251       O  0.19218596  0.14393889  0.58429619    -0.60000
H2252       H  0.23405682  0.14011173  0.58983515     0.14500
H2253       H  0.30558666  0.17212472  0.63791581     0.46300
H2254       H  0.23603911  0.13174929  0.66862575     0.41700
H2255       H  0.19133803  0.13072354  0.57502363     0.45200
H2256       H  0.25906620  0.08463531  0.63989278     0.36700
C2257       C  0.36653363  0.09750388  0.27253209    -0.27600
C2258       C  0.37876664  0.11300811  0.26109048     0.02000
C2259       C  0.39122338  0.12838447  0.27260166     0.30100
C2260       C  0.39095329  0.12845031  0.29533580    -0.19400
C2261       C  0.37874328  0.11297580  0.30688448    -0.28800
C2262       C  0.36668329  0.09721491  0.29533772     0.44100
C2263       C  0.37797757  0.11357560  0.23712454     0.05300
O2264       O  0.40288907  0.14402323  0.26172249    -0.57300
H2265       H  0.40032964  0.14066549  0.30397405     0.18300
O2266       O  0.35405128  0.08230576  0.30614431    -0.64000
H2267       H  0.35680302  0.08568241  0.26374366     0.16700
C2268       C  0.39666519  0.10905016  0.22475580     0.29000
C2269       C  0.39605367  0.11122900  0.20213272    -0.24900
C2270       C  0.37682114  0.11767789  0.19142738    -0.24200
C2271       C  0.35792410  0.12169498  0.20391661     0.40400
C2272       C  0.35862011  0.11955148  0.22659733    -0.26700
O2273       O  0.41563778  0.10258896  0.23466455    -0.58500
H2274       H  0.41070250  0.10771631  0.19295246     0.16000
O2275       O  0.33877233  0.12795854  0.19424421    -0.60000
H2276       H  0.34413987  0.12304681  0.23605916     0.14500
H2277       H  0.36288913  0.06877983  0.30656783     0.46300
H2278       H  0.41410226  0.08665078  0.23676009     0.41700
H2279       H  0.33932353  0.14410441  0.19382391     0.45200
H2280       H  0.41824035  0.13900727  0.26223106     0.36700
C2281       C  0.36465198  0.14141557  0.47351410    -0.27600
C2282       C  0.37235631  0.12418737  0.48646597     0.02000
C2283       C  0.38098043  0.10554743  0.47610184     0.30100
C2284       C  0.38186707  0.10443822  0.45337595    -0.19400
C2285       C  0.37475665  0.12191512  0.44047029    -0.28800
C2286       C  0.36609078  0.14054774  0.45076460     0.44100
C2287       C  0.37147898  0.12572666  0.51067279     0.05300
O2288       O  0.38890773  0.08837897  0.48800809    -0.57300
H2289       H  0.38858896  0.08996319  0.44584333     0.18300
O2290       O  0.35817463  0.15765797  0.43876460    -0.64000
H2291       H  0.35732619  0.15559159  0.48102019     0.16700
C2292       C  0.37895889  0.14438604  0.52185558     0.29000
C2293       C  0.37919032  0.14475820  0.54470738    -0.24900
C2294       C  0.37217520  0.12666367  0.55680240    -0.24200
C2295       C  0.36412175  0.10827070  0.54556733     0.40400
C2296       C  0.36364398  0.10802600  0.52281961    -0.26700
O2297       O  0.38720892  0.16185686  0.51063913    -0.58500
H2298       H  0.38539129  0.15907432  0.55295584     0.16000
O2299       O  0.35666011  0.09033945  0.55659867    -0.60000
H2300       H  0.35717258  0.09379958  0.51462700     0.14500
H2301       H  0.37007130  0.16859275  0.43864238     0.46300
H2302       H  0.37617132  0.17355247  0.51218198     0.41700
H2303       H  0.34106656  0.09337685  0.55955308     0.45200
H2304       H  0.40436130  0.09203271  0.49097139     0.36700
C2305       C  0.72473322  0.13464408  0.61718141    -0.27600
C2306       C  0.73559423  0.11749401  0.62767914     0.02000
C2307       C  0.72340130  0.10164308  0.63885129     0.30100
C2308       C  0.70067960  0.10338597  0.63984001    -0.19400
C2309       C  0.68982450  0.12092097  0.62987624    -0.28800
C2310       C  0.70204389  0.13640136  0.61813770     0.44100
C2311       C  0.75968133  0.11709538  0.62777694     0.05300
O2312       O  0.73356724  0.08452680  0.64900665    -0.57300
H2313       H  0.69155753  0.09118458  0.64873487     0.18300
O2314       O  0.69199920  0.15325167  0.60743508    -0.64000
H2315       H  0.73393077  0.14697368  0.60854430     0.16700
C2316       C  0.77151663  0.11699248  0.60820280     0.29000
C2317       C  0.79422657  0.11872283  0.60865193    -0.24900
C2318       C  0.80556046  0.12078488  0.62848663    -0.24200
C2319       C  0.79363193  0.12015289  0.64815040     0.40400
C2320       C  0.77089565  0.11838343  0.64764005    -0.26700
O2321       O  0.76101511  0.11479481  0.58858370    -0.58500
H2322       H  0.80292314  0.11867580  0.59331147     0.16000
O2323       O  0.80384541  0.12199218  0.66793829    -0.60000
H2324       H  0.76191969  0.11863117  0.66282573     0.14500
H2325       H  0.68846094  0.14744520  0.59276303     0.46300
H2326       H  0.76129748  0.12948743  0.58189182     0.41700
H2327       H  0.80588225  0.10680681  0.67308028     0.45200
H2328       H  0.73425867  0.07282938  0.63788989     0.36700
C2329       C  0.62300528  0.10742320  0.73537672    -0.27600
C2330       C  0.62032820  0.12726340  0.74625532     0.02000
C2331       C  0.61856607  0.14661288  0.73417653     0.30100
C2332       C  0.61981409  0.14596490  0.71139594    -0.19400
C2333       C  0.62268934  0.12607411  0.70030892    -0.28800
C2334       C  0.62430745  0.10668683  0.71264216     0.44100
C2335       C  0.62019818  0.12751451  0.77028330     0.05300
O2336       O  0.61572176  0.16621603  0.74450266    -0.57300
H2337       H  0.61834476  0.16107825  0.70241167     0.18300
O2338       O  0.62724554  0.08688538  0.70274378    -0.64000
H2339       H  0.62442305  0.09244671  0.74461119     0.16700
C2340       C  0.60163574  0.12108388  0.78198345     0.29000
C2341       C  0.60233217  0.12009407  0.80475246    -0.24900
C2342       C  0.62151995  0.12529372  0.81622231    -0.24200
C2343       C  0.64009441  0.13185918  0.80431960     0.40400
C2344       C  0.63923230  0.13309864  0.78155333    -0.26700
O2345       O  0.58286518  0.11537360  0.77127682    -0.58500
H2346       H  0.58786328  0.11493075  0.81341770     0.16000
O2347       O  0.65905517  0.13750337  0.81471708    -0.60000
H2348       H  0.65361741  0.13804531  0.77261288     0.14500
H2349       H  0.64326898  0.08497581  0.70178991     0.46300
H2350       H  0.57497134  0.12927031  0.76885651     0.41700
H2351       H  0.66835891  0.12430662  0.81404328     0.45200
H2352       H  0.59974503  0.16765296  0.74651090     0.36700
C2353       C  0.52107894  0.14269688  0.64355113    -0.27600
C2354       C  0.51025735  0.12792777  0.62976775     0.02000
C2355       C  0.52264892  0.11372016  0.61669733     0.30100
C2356       C  0.54539097  0.11383633  0.61817074    -0.19400
C2357       C  0.55615706  0.12828545  0.63221109    -0.28800
C2358       C  0.54388454  0.14298712  0.64478298     0.44100
C2359       C  0.48607864  0.12767804  0.62893203     0.05300
O2360       O  0.51268839  0.10052138  0.60163111    -0.57300
H2361       H  0.55468620  0.10282712  0.60797147     0.18300
O2362       O  0.55397103  0.15737248  0.65859149    -0.64000
H2363       H  0.51179277  0.15383451  0.65360277     0.16700
C2364       C  0.47423665  0.10826778  0.63209344     0.29000
C2365       C  0.45146997  0.10835153  0.63062526    -0.24900
C2366       C  0.43997490  0.12773374  0.62651101    -0.24200
C2367       C  0.45191322  0.14727300  0.62382648     0.40400
C2368       C  0.47469152  0.14709284  0.62508130    -0.26700
O2369       O  0.48472054  0.08915358  0.63699770    -0.58500
H2370       H  0.44278962  0.09319119  0.63306857     0.16000
O2371       O  0.44158328  0.16671049  0.61999103    -0.60000
H2372       H  0.48353244  0.16218825  0.62274927     0.14500
H2373       H  0.55536751  0.14950046  0.67264665     0.46300
H2374       H  0.48705479  0.08956563  0.65297428     0.41700
H2375       H  0.44097492  0.16808785  0.60391046     0.45200
H2376       H  0.51575950  0.08537571  0.60636758     0.36700
C2377       C  0.60423605  0.12562412  0.23639368    -0.27600
C2378       C  0.62417180  0.12104889  0.24656443     0.02000
C2379       C  0.64262067  0.11660656  0.23380602     0.30100
C2380       C  0.64091692  0.11636909  0.21114286    -0.19400
C2381       C  0.62091223  0.12063174  0.20078107    -0.28800
C2382       C  0.60249490  0.12551376  0.21367087     0.44100
C2383       C  0.62562644  0.12082872  0.27052238     0.05300
O2384       O  0.66241775  0.11251389  0.24335981    -0.57300
H2385       H  0.65534217  0.11269892  0.20167657     0.18300
O2386       O  0.58274015  0.13020932  0.20432599    -0.64000
H2387       H  0.58994812  0.12915108  0.24613125     0.16700
C2388       C  0.62128143  0.13970932  0.28267434     0.29000
C2389       C  0.62278295  0.13917239  0.30535533    -0.24900
C2390       C  0.62852082  0.11988028  0.31632114    -0.24200
C2391       C  0.63291034  0.10094335  0.30401527     0.40400
C2392       C  0.63159644  0.10160522  0.28128558    -0.26700
O2393       O  0.61559495  0.15878174  0.27251584    -0.58500
H2394       H  0.61916953  0.15390243  0.31436878     0.16000
O2395       O  0.63886521  0.08182152  0.31392357    -0.60000
H2396       H  0.63502162  0.08698357  0.27201026     0.14500
H2397       H  0.58258375  0.14627699  0.20260884     0.46300
H2398       H  0.62959785  0.16590214  0.26877034     0.41700
H2399       H  0.62530370  0.07306617  0.31472159     0.45200
H2400       H  0.66871366  0.12706751  0.24647106     0.36700
C2401       C  0.52671010  0.10026277  0.36646476    -0.27600
C2402       C  0.51444603  0.11825394  0.37337490     0.02000
C2403       C  0.52519876  0.13654824  0.38204199     0.30100
C2404       C  0.54789646  0.13650732  0.38403551    -0.19400
C2405       C  0.56021763  0.11839606  0.37744164    -0.28800
C2406       C  0.54943438  0.10028852  0.36825775     0.44100
C2407       C  0.49039189  0.11732402  0.37251499     0.05300
O2408       O  0.51354795  0.15399381  0.38976426    -0.57300
H2409       H  0.55582249  0.15056773  0.39117873     0.18300
O2410       O  0.56088680  0.08258768  0.36086561    -0.64000
H2411       H  0.51860177  0.08615213  0.35962603     0.16700
C2412       C  0.47825763  0.13312754  0.36115696     0.29000
C2413       C  0.45549967  0.13265697  0.36185678    -0.24900
C2414       C  0.44448429  0.11625762  0.37340055    -0.24200
C2415       C  0.45666068  0.10007649  0.38422864     0.40400
C2416       C  0.47943830  0.10068204  0.38368643    -0.26700
O2417       O  0.48847022  0.14907105  0.34931071    -0.58500
H2418       H  0.44642231  0.14503899  0.35313432     0.16000
O2419       O  0.44651843  0.08395169  0.39587680    -0.60000
H2420       H  0.48860753  0.08841531  0.39247683     0.14500
H2421       H  0.56477850  0.08615460  0.34559350     0.46300
H2422       H  0.49227976  0.14211405  0.33524394     0.41700
H2423       H  0.44430721  0.09014934  0.41062892     0.45200
H2424       H  0.51647971  0.16606406  0.37943256     0.36700
C2425       C  0.62981068  0.10540884  0.48571708    -0.27600
C2426       C  0.61754959  0.12185611  0.49581795     0.02000
C2427       C  0.60704474  0.13757323  0.48277819     0.30100
C2428       C  0.60942020  0.13700698  0.46011252    -0.19400
C2429       C  0.62171151  0.12053588  0.45005341    -0.28800
C2430       C  0.63166650  0.10446509  0.46305018     0.44100
C2431       C  0.61693975  0.12301324  0.51994387     0.05300
O2432       O  0.59444013  0.15353944  0.49201454    -0.57300
H2433       H  0.60137370  0.14932199  0.45034686     0.18300
O2434       O  0.64422932  0.08844568  0.45385526    -0.64000
H2435       H  0.63843143  0.09348520  0.49546128     0.16700
C2436       C  0.61190635  0.10453954  0.53255576     0.29000
C2437       C  0.61336072  0.10550589  0.55528279    -0.24900
C2438       C  0.61979454  0.12475615  0.56588736    -0.24200
C2439       C  0.62430272  0.14341502  0.55321525     0.40400
C2440       C  0.62286313  0.14240946  0.53049181    -0.26700
O2441       O  0.60491337  0.08567073  0.52280599    -0.58500
H2442       H  0.60934799  0.09108065  0.56461033     0.16000
O2443       O  0.63042185  0.16266574  0.56275610    -0.60000
H2444       H  0.62702732  0.15671330  0.52104145     0.14500
H2445       H  0.63464587  0.07545957  0.45309844     0.46300
H2446       H  0.61699180  0.07511320  0.52467001     0.41700
H2447       H  0.64656403  0.16213516  0.56340824     0.45200
H2448       H  0.57956164  0.14728404  0.49274459     0.36700
C2449       C  0.10429450  0.62974101  0.72423348    -0.27600
C2450       C  0.12384149  0.62733753  0.73576694     0.02000
C2451       C  0.14357416  0.62578798  0.72433597     0.30100
C2452       C  0.14365260  0.62695901  0.70159305    -0.19400
C2453       C  0.12415593  0.62980999  0.68982624    -0.28800
C2454       C  0.10429299  0.63095915  0.70144227     0.44100
C2455       C  0.12364402  0.62710932  0.75979498     0.05300
O2456       O  0.16281545  0.62264025  0.73528337    -0.57300
H2457       H  0.15910681  0.62564825  0.69319280     0.18300
O2458       O  0.08482513  0.63375369  0.69082469    -0.64000
H2459       H  0.08901221  0.63097468  0.73296874     0.16700
C2460       C  0.13131891  0.64513896  0.77163143     0.29000
C2461       C  0.13168679  0.64451883  0.79439809    -0.24900
C2462       C  0.12448461  0.62597793  0.80572928    -0.24200
C2463       C  0.11634363  0.60807122  0.79374820     0.40400
C2464       C  0.11596894  0.60876437  0.77094923    -0.26700
O2465       O  0.13868838  0.66337264  0.76104739    -0.58500
H2466       H  0.13792303  0.65849386  0.80318627     0.16000
O2467       O  0.10865071  0.58983406  0.80408872    -0.60000
H2468       H  0.10986930  0.59487086  0.76192877     0.14500
H2469       H  0.07898430  0.61884307  0.68870691     0.46300
H2470       H  0.12546323  0.67213997  0.75800310     0.41700
H2471       H  0.09313879  0.59303777  0.80731639     0.45200
H2472       H  0.16938871  0.63732729  0.73664238     0.36700
C2473       C  0.13270110  0.78045422  0.60422339    -0.27600
C2474       C  0.12884234  0.76921982  0.62366895     0.02000
C2475       C  0.12462503  0.78100213  0.64284134     0.30100
C2476       C  0.12414400  0.80380125  0.64233306    -0.19400
C2477       C  0.12775757  0.81520076  0.62277795    -0.28800
C2478       C  0.13217046  0.80320758  0.60361594     0.44100
C2479       C  0.12883689  0.74517156  0.62360214     0.05300
O2480       O  0.12075125  0.77037199  0.66209900    -0.57300
H2481       H  0.12071035  0.81254349  0.65726384     0.18300
O2482       O  0.13660955  0.81348893  0.58429477    -0.64000
H2483       H  0.13621033  0.77150811  0.58942110     0.16700
C2484       C  0.11328444  0.73361342  0.61137817     0.29000
C2485       C  0.11330647  0.71085126  0.61159471    -0.24900
C2486       C  0.12908474  0.69929599  0.62346739    -0.24200
C2487       C  0.14487741  0.71088646  0.63545163     0.40400
C2488       C  0.14451129  0.73370033  0.63565198    -0.26700
O2489       O  0.09754452  0.74446906  0.59978717    -0.58500
H2490       H  0.10106115  0.70220240  0.60226318     0.16000
O2491       O  0.16006673  0.70009324  0.64779932    -0.60000
H2492       H  0.15655295  0.74247688  0.64512330     0.14500
H2493       H  0.12267685  0.81333701  0.57609293     0.46300
H2494       H  0.10281140  0.74457081  0.58453623     0.41700
H2495       H  0.17343818  0.69976474  0.63875108     0.45200
H2496       H  0.10506805  0.76650046  0.66170972     0.36700
C2497       C  0.10954956  0.61076329  0.22359623    -0.27600
C2498       C  0.12373164  0.62384715  0.23585721     0.02000
C2499       C  0.13821402  0.63796037  0.22505925     0.30100
C2500       C  0.13871666  0.63853089  0.20230794    -0.19400
C2501       C  0.12505735  0.62494770  0.19003341    -0.28800
C2502       C  0.11014713  0.61123482  0.20080643     0.44100
C2503       C  0.12352567  0.62266649  0.25990570     0.05300
O2504       O  0.15204332  0.65116412  0.23662703    -0.57300
H2505       H  0.15015585  0.64926199  0.19422854     0.18300
O2506       O  0.09600426  0.59838111  0.18921628    -0.64000
H2507       H  0.09819943  0.59997802  0.23172642     0.16700
C2508       C  0.10472088  0.62804656  0.27180416     0.29000
C2509       C  0.10518548  0.62765525  0.29458232    -0.24900
C2510       C  0.12434350  0.62208354  0.30588775    -0.24200
C2511       C  0.14307306  0.61629574  0.29383651     0.40400
C2512       C  0.14254521  0.61669557  0.27106753    -0.26700
O2513       O  0.08594823  0.63417381  0.26132526    -0.58500
H2514       H  0.09059408  0.63218417  0.30340104     0.16000
O2515       O  0.16202436  0.61028151  0.30405433    -0.60000
H2516       H  0.15707541  0.61233924  0.26204754     0.14500
H2517       H  0.08311710  0.60774073  0.18637245     0.46300
H2518       H  0.08755955  0.65003136  0.25867264     0.41700
H2519       H  0.16077986  0.59432398  0.30622302     0.45200
H2520       H  0.14316518  0.66403317  0.24072559     0.36700
C2521       C  0.10954859  0.62183515  0.47579913    -0.27600
C2522       C  0.12781953  0.63130405  0.48575665     0.02000
C2523       C  0.14500178  0.63897355  0.47274866     0.30100
C2524       C  0.14389585  0.63688022  0.45010746    -0.19400
C2525       C  0.12562962  0.62739130  0.44002308    -0.28800
C2526       C  0.10827996  0.61995731  0.45310862     0.44100
C2527       C  0.12886686  0.63280976  0.50975476     0.05300
O2528       O  0.16288421  0.64866030  0.48201471    -0.57300
H2529       H  0.15730154  0.64297327  0.44039524     0.18300
O2530       O  0.09044652  0.61002665  0.44400673    -0.64000
H2531       H  0.09632257  0.61563946  0.48569394     0.16700
C2532       C  0.11306620  0.64458944  0.52139262     0.29000
C2533       C  0.11353003  0.64477979  0.54415991    -0.24900
C2534       C  0.12971358  0.63338901  0.55566332    -0.24200
C2535       C  0.14591824  0.62207695  0.54396004     0.40400
C2536       C  0.14534057  0.62177864  0.52115075    -0.26700
O2537       O  0.09745779  0.65641078  0.51059499    -0.58500
H2538       H  0.10117485  0.65389853  0.55285596     0.16000
O2539       O  0.16159902  0.61024023  0.55462316    -0.60000
H2540       H  0.15749427  0.61250593  0.51233153     0.14500
H2541       H  0.07906711  0.62148750  0.44335427     0.46300
H2542       H  0.08405813  0.64743748  0.51127956     0.41700
H2543       H  0.17473179  0.61964570  0.55465863     0.45200
H2544       H  0.15891874  0.66424436  0.48354982     0.36700
C2545       C  0.14079412  0.28094213  0.62686208    -0.27600
C2546       C  0.12166690  0.26984692  0.62129957     0.02000
C2547       C  0.10270218  0.28164173  0.61639582     0.30100
C2548       C  0.10298606  0.30439026  0.61714959    -0.19400
C2549       C  0.12216608  0.31572437  0.62256424    -0.28800
C2550       C  0.14119472  0.30371054  0.62752521     0.44100
C2551       C  0.12151292  0.24588608  0.62118525     0.05300
O2552       O  0.08366152  0.27102157  0.61149207    -0.57300
H2553       H  0.08813484  0.31314486  0.61335006     0.18300
O2554       O  0.16026211  0.31394981  0.63308750    -0.64000
H2555       H  0.15545328  0.27188447  0.63073563     0.16700
C2556       C  0.12136648  0.23424394  0.60151590     0.29000
C2557       C  0.12123136  0.21147018  0.60181496    -0.24900
C2558       C  0.12124315  0.19995377  0.62164887    -0.24200
C2559       C  0.12109060  0.21185696  0.64137886     0.40400
C2560       C  0.12146135  0.23462643  0.64098277    -0.26700
O2561       O  0.12137459  0.24500651  0.58194086    -0.58500
H2562       H  0.12122957  0.20284912  0.58642467     0.16000
O2563       O  0.12076339  0.20151723  0.66116834    -0.60000
H2564       H  0.12149155  0.24356468  0.65620415     0.14500
H2565       H  0.15977979  0.31536981  0.64916664     0.46300
H2566       H  0.13695314  0.24645998  0.57793943     0.41700
H2567       H  0.10511815  0.20039859  0.66507158     0.45200
H2568       H  0.08318635  0.27037474  0.59536292     0.36700
C2569       C  0.09802456  0.38873496  0.72368782    -0.27600
C2570       C  0.11619579  0.38140576  0.73550697     0.02000
C2571       C  0.13516276  0.37526292  0.72420239     0.30100
C2572       C  0.13564594  0.37607652  0.70147723    -0.19400
C2573       C  0.11741463  0.38311779  0.68953217    -0.28800
C2574       C  0.09856170  0.38976832  0.70089382     0.44100
C2575       C  0.11536849  0.38012186  0.75959419     0.05300
O2576       O  0.15338421  0.36847746  0.73524106    -0.57300
H2577       H  0.15035800  0.37097521  0.69318129     0.18300
O2578       O  0.08061896  0.39739896  0.68996493    -0.64000
H2579       H  0.08330255  0.39351918  0.73214920     0.16700
C2580       C  0.11027616  0.39851395  0.77226575     0.29000
C2581       C  0.11077980  0.39715870  0.79501168    -0.24900
C2582       C  0.11613200  0.37753028  0.80555808    -0.24200
C2583       C  0.12095307  0.35902680  0.79276920     0.40400
C2584       C  0.12042034  0.36042482  0.77003347    -0.26700
O2585       O  0.10584940  0.41815524  0.76256754    -0.58500
H2586       H  0.10704620  0.41162527  0.80439535     0.16000
O2587       O  0.12648496  0.33955025  0.80221639    -0.60000
H2588       H  0.12419611  0.34607626  0.76047564     0.14500
H2589       H  0.08279870  0.41338347  0.68890473     0.46300
H2590       H  0.08986284  0.42005166  0.76384075     0.41700
H2591       H  0.14262618  0.33974429  0.80321475     0.45200
H2592       H  0.16158753  0.38198369  0.73858290     0.36700
C2593       C  0.10200355  0.48461256  0.62696595    -0.27600
C2594       C  0.12152449  0.49575878  0.62287585     0.02000
C2595       C  0.14059955  0.48377245  0.61857630     0.30100
C2596       C  0.14000842  0.46105661  0.61855356    -0.19400
C2597       C  0.12046978  0.44980818  0.62243958    -0.28800
C2598       C  0.10130049  0.46183898  0.62659879     0.44100
C2599       C  0.12192638  0.51985837  0.62309098     0.05300
O2600       O  0.15990867  0.49410289  0.61415500    -0.57300
H2601       H  0.15492300  0.45223818  0.61519628     0.18300
O2602       O  0.08196585  0.45158272  0.63107256    -0.64000
H2603       H  0.08726198  0.49360003  0.63063846     0.16700
C2604       C  0.10707841  0.53207433  0.61052393     0.29000
C2605       C  0.10811617  0.55481600  0.61063443    -0.24900
C2606       C  0.12417990  0.56566322  0.62275437    -0.24200
C2607       C  0.13889797  0.55347326  0.63546443     0.40400
C2608       C  0.13760534  0.53077121  0.63566503    -0.26700
O2609       O  0.09178036  0.52195739  0.59774657    -0.58500
H2610       H  0.09667124  0.56398374  0.60079255     0.16000
O2611       O  0.15441815  0.56357486  0.64798750    -0.60000
H2612       H  0.14887955  0.52163842  0.64572980     0.14500
H2613       H  0.07381081  0.45159720  0.61711388     0.46300
H2614       H  0.09949791  0.51818463  0.58407646     0.41700
H2615       H  0.14699935  0.56713855  0.66187802     0.45200
H2616       H  0.15944689  0.49732342  0.59833506     0.36700
C2617       C  0.13441729  0.39526975  0.22333100    -0.27600
C2618       C  0.12492983  0.37804063  0.23497651     0.02000
C2619       C  0.11513931  0.36078832  0.22342839     0.30100
C2620       C  0.11476284  0.36102779  0.20066193    -0.19400
C2621       C  0.12403168  0.37835671  0.18898821    -0.28800
C2622       C  0.13410652  0.39548769  0.20053304     0.44100
C2623       C  0.12527985  0.37813424  0.25913335     0.05300
O2624       O  0.10596076  0.34354312  0.23424953    -0.57300
H2625       H  0.10698924  0.34768056  0.19211830     0.18300
O2626       O  0.14390829  0.41240634  0.18974043    -0.64000
H2627       H  0.14199169  0.40867606  0.23195752     0.16700
C2628       C  0.14496355  0.38028122  0.27072343     0.29000
C2629       C  0.14493344  0.37973570  0.29350992    -0.24900
C2630       C  0.12542891  0.37695263  0.30521940    -0.24200
C2631       C  0.10567606  0.37508507  0.29351167     0.40400
C2632       C  0.10575981  0.37566925  0.27072763    -0.26700
O2633       O  0.16439074  0.38253207  0.25993431    -0.58500
H2634       H  0.16033014  0.38131794  0.30200222     0.16000
O2635       O  0.08622127  0.37207175  0.30404975    -0.60000
H2636       H  0.09045082  0.37417479  0.26204964     0.14500
H2637       H  0.15892924  0.40730662  0.18664398     0.46300
H2638       H  0.16943737  0.36744841  0.25709838     0.41700
H2639       H  0.07979233  0.38683253  0.30538346     0.45200
H2640       H  0.11804808  0.33306474  0.23654690     0.36700
C2641       C  0.10824018  0.47553204  0.38006087    -0.27600
C2642       C  0.12716879  0.48708309  0.37464831     0.02000
C2643       C  0.14629240  0.47548610  0.36956849     0.30100
C2644       C  0.14623440  0.45269427  0.36985065    -0.19400
C2645       C  0.12715686  0.44103582  0.37486607    -0.28800
C2646       C  0.10803228  0.45276269  0.38002366     0.44100
C2647       C  0.12673874  0.51120572  0.37441998     0.05300
O2648       O  0.16504911  0.48626661  0.36400061    -0.57300
H2649       H  0.16111719  0.44415174  0.36573612     0.18300
O2650       O  0.08913491  0.44222076  0.38555397    -0.64000
H2651       H  0.09351455  0.48421989  0.38443539     0.16700
C2652       C  0.11102006  0.52260284  0.36215857     0.29000
C2653       C  0.11067417  0.54538734  0.36245144    -0.24900
C2654       C  0.12602016  0.55711275  0.37466865    -0.24200
C2655       C  0.14179738  0.54573927  0.38685674     0.40400
C2656       C  0.14194876  0.52295171  0.38681729    -0.26700
O2657       O  0.09658130  0.51160898  0.34909319    -0.58500
H2658       H  0.09864589  0.55391997  0.35273162     0.16000
O2659       O  0.15651827  0.55672386  0.39959402    -0.60000
H2660       H  0.15387375  0.51441347  0.39665187     0.14500
H2661       H  0.08037437  0.44178887  0.37197239     0.46300
H2662       H  0.08233167  0.51268156  0.35658026     0.41700
H2663       H  0.17005646  0.55740392  0.39081260     0.45200
H2664       H  0.16398699  0.48861847  0.34805340     0.36700
C2665       C  0.11666560  0.35933282  0.47441129    -0.27600
C2666       C  0.12933132  0.37501641  0.48526981     0.02000
C2667       C  0.14282726  0.38891549  0.47294294     0.30100
C2668       C  0.14321741  0.38723850  0.45020300    -0.19400
C2669       C  0.12986914  0.37217537  0.43937901    -0.28800
C2670       C  0.11676432  0.35794482  0.45165090     0.44100
C2671       C  0.12805319  0.37699437  0.50936031     0.05300
O2672       O  0.15520089  0.40463167  0.48290236    -0.57300
H2673       H  0.15334230  0.39833296  0.44094476     0.18300
O2674       O  0.10406000  0.34258177  0.44155699    -0.64000
H2675       H  0.10659819  0.34815698  0.48361659     0.16700
C2676       C  0.10784420  0.37945851  0.51991988     0.29000
C2677       C  0.10695542  0.38134485  0.54263296    -0.24900
C2678       C  0.12602717  0.38067848  0.55532797    -0.24200
C2679       C  0.14630267  0.37824153  0.54465640     0.40400
C2680       C  0.14715191  0.37648068  0.52192651    -0.26700
O2681       O  0.08892301  0.38091915  0.50808475    -0.58500
H2682       H  0.09118872  0.38334365  0.55028640     0.16000
O2683       O  0.16545129  0.37757571  0.55617168    -0.60000
H2684       H  0.16282778  0.37442685  0.51409063     0.14500
H2685       H  0.11365775  0.32971026  0.43972471     0.46300
H2686       H  0.08139913  0.36681191  0.51027474     0.41700
H2687       H  0.16812859  0.36190026  0.55904711     0.45200
H2688       H  0.14542886  0.41741937  0.48434653     0.36700
C2689       C  0.77341173  0.86464328  0.36581252    -0.27600
C2690       C  0.76277988  0.88098178  0.37770438     0.02000
C2691       C  0.77512622  0.89619796  0.38959372     0.30100
C2692       C  0.79791934  0.89486395  0.38954632    -0.19400
C2693       C  0.80851694  0.87883382  0.37720196    -0.28800
C2694       C  0.79614573  0.86359117  0.36538218     0.44100
C2695       C  0.73875670  0.88147787  0.37792806     0.05300
O2696       O  0.76502106  0.91198880  0.40173469    -0.57300
H2697       H  0.80733513  0.90660643  0.39877678     0.18300
O2698       O  0.80614418  0.84747705  0.35356120    -0.64000
H2699       H  0.76401584  0.85275218  0.35675391     0.16700
C2700       C  0.72706415  0.89813332  0.36736999     0.29000
C2701       C  0.70423856  0.89744512  0.36678841    -0.24900
C2702       C  0.69287158  0.88004591  0.37638694    -0.24200
C2703       C  0.70471770  0.86365023  0.38734315     0.40400
C2704       C  0.72745656  0.86445508  0.38799508    -0.26700
O2705       O  0.73781302  0.91486705  0.35721337    -0.58500
H2706       H  0.69545929  0.91021019  0.35832601     0.16000
O2707       O  0.69420257  0.84714372  0.39811135    -0.60000
H2708       H  0.73634369  0.85167586  0.39633818     0.14500
H2709       H  0.80891856  0.83555508  0.36411350     0.46300
H2710       H  0.74125534  0.90933220  0.34244133     0.41700
H2711       H  0.69504280  0.83438798  0.38823227     0.45200
H2712       H  0.76580977  0.92539946  0.39277629     0.36700
C2713       C  0.86378990  0.77523753  0.35352072    -0.27600
C2714       C  0.87226092  0.76345451  0.37113555     0.02000
C2715       C  0.88008094  0.77459778  0.38953824     0.30100
C2716       C  0.87982714  0.79731324  0.38999170    -0.19400
C2717       C  0.87189240  0.80928052  0.37216500    -0.28800
C2718       C  0.86365187  0.79803156  0.35387028     0.44100
C2719       C  0.87311690  0.73950434  0.37033036     0.05300
O2720       O  0.88813275  0.76338928  0.40712343    -0.57300
H2721       H  0.88620983  0.80557537  0.40422398     0.18300
O2722       O  0.85488888  0.80909510  0.33654150    -0.64000
H2723       H  0.85755081  0.76674000  0.33936118     0.16700
C2724       C  0.85393259  0.72707803  0.36995673     0.29000
C2725       C  0.85514057  0.70437335  0.37108188    -0.24900
C2726       C  0.87540731  0.69370685  0.37233789    -0.24200
C2727       C  0.89466912  0.70633210  0.37205628     0.40400
C2728       C  0.89336585  0.72902581  0.37106697    -0.26700
O2729       O  0.83392687  0.73703392  0.36957947    -0.58500
H2730       H  0.84010269  0.69514618  0.37116205     0.16000
O2731       O  0.91486334  0.69678281  0.37277194    -0.60000
H2732       H  0.90823825  0.73854006  0.37116878     0.14500
H2733       H  0.86663806  0.80962458  0.32547913     0.46300
H2734       H  0.82941559  0.73692113  0.35407111     0.41700
H2735       H  0.91899360  0.69672540  0.38839772     0.45200
H2736       H  0.87514277  0.75903411  0.41566648     0.36700
C2737       C  0.85614847  0.27459862  0.38322565    -0.27600
C2738       C  0.87518422  0.26314484  0.37781029     0.02000
C2739       C  0.89403428  0.27494038  0.37216415     0.30100
C2740       C  0.89368785  0.29771795  0.37205035    -0.19400
C2741       C  0.87471783  0.30927229  0.37760767    -0.28800
C2742       C  0.85581244  0.29742052  0.38328593     0.44100
C2743       C  0.87526412  0.23894156  0.37795471     0.05300
O2744       O  0.91299694  0.26436087  0.36690117    -0.57300
H2745       H  0.90841576  0.30635106  0.36760455     0.18300
O2746       O  0.83692237  0.30787955  0.38902624    -0.64000
H2747       H  0.84141595  0.26581138  0.38734182     0.16700
C2748       C  0.86867586  0.22711558  0.39647457     0.29000
C2749       C  0.86943940  0.20429779  0.39634673    -0.24900
C2750       C  0.87637574  0.19285010  0.37777762    -0.24200
C2751       C  0.88286441  0.20474257  0.35921439     0.40400
C2752       C  0.88229736  0.22753439  0.35944364    -0.26700
O2753       O  0.86233680  0.23773918  0.41507944    -0.58500
H2754       H  0.86441831  0.19554967  0.41081766     0.16000
O2755       O  0.89061425  0.19432796  0.34104030    -0.60000
H2756       H  0.88734903  0.23635652  0.34502708     0.14500
H2757       H  0.83774115  0.30955395  0.40507938     0.46300
H2758       H  0.84628385  0.23602095  0.41571975     0.41700
H2759       H  0.87807364  0.19364503  0.33086641     0.45200
H2760       H  0.92038909  0.26161995  0.38099846     0.36700
C2761       C  0.77631539  0.11986417  0.40266323    -0.27600
C2762       C  0.76406302  0.12250091  0.38359125     0.02000
C2763       C  0.77483868  0.12568333  0.36364579     0.30100
C2764       C  0.79758884  0.12644071  0.36299142    -0.19400
C2765       C  0.81001662  0.12396960  0.38208999    -0.28800
C2766       C  0.79908931  0.12047479  0.40206140     0.44100
C2767       C  0.74002037  0.12221987  0.38464728     0.05300
O2768       O  0.76325467  0.12802518  0.34467316    -0.57300
H2769       H  0.80548511  0.12901529  0.34743567     0.18300
O2770       O  0.81039657  0.11774401  0.42114417    -0.64000
H2771       H  0.76816906  0.11749391  0.41812895     0.16700
C2772       C  0.72873789  0.10368339  0.39194642     0.29000
C2773       C  0.70592791  0.10361768  0.39220078    -0.24900
C2774       C  0.69404283  0.12205052  0.38555621    -0.24200
C2775       C  0.70549331  0.14068143  0.37841264     0.40400
C2776       C  0.72826826  0.14063708  0.37804317    -0.26700
O2777       O  0.73986808  0.08526099  0.39797503    -0.58500
H2778       H  0.69754078  0.08907219  0.39761161     0.16000
O2779       O  0.69465760  0.15890835  0.37136180    -0.60000
H2780       H  0.73682234  0.15502738  0.37245943     0.14500
H2781       H  0.81263285  0.10179046  0.42249377     0.46300
H2782       H  0.74022412  0.08559447  0.41411020     0.41700
H2783       H  0.69275628  0.15682111  0.35544634     0.45200
H2784       H  0.76009780  0.11296601  0.33975143     0.36700
C2785       C  0.87066089  0.97706693  0.39549869    -0.27600
C2786       C  0.87996896  0.98866311  0.37820150     0.02000
C2787       C  0.88932773  0.97724370  0.36068068     0.30100
C2788       C  0.88860627  0.95446182  0.36027854    -0.19400
C2789       C  0.87877364  0.94283146  0.37731784    -0.28800
C2790       C  0.86995048  0.95432055  0.39513961     0.44100
C2791       C  0.87930283  0.01269740  0.37837932     0.05300
O2792       O  0.89983196  0.98823919  0.34431058    -0.57300
H2793       H  0.89588356  0.94587551  0.34668861     0.18300
O2794       O  0.86008935  0.94353894  0.41202943    -0.64000
H2795       H  0.86344450  0.98572332  0.40907657     0.16700
C2796       C  0.86816283  0.02421054  0.36197842     0.29000
C2797       C  0.86792234  0.04697484  0.36221736    -0.24900
C2798       C  0.87821312  0.05858434  0.37903691    -0.24200
C2799       C  0.88894514  0.04697822  0.39574151     0.40400
C2800       C  0.88938298  0.02419736  0.39533199    -0.26700
O2801       O  0.85716538  0.01333549  0.34584505    -0.58500
H2802       H  0.85931361  0.05556208  0.34941561     0.16000
O2803       O  0.89935865  0.05770413  0.41234800    -0.60000
H2804       H  0.89784091  0.01547030  0.40814339     0.14500
H2805       H  0.84484556  0.94113760  0.40719947     0.46300
H2806       H  0.84259263  0.01015352  0.35204591     0.41700
H2807       H  0.91450723  0.05992480  0.40712263     0.45200
H2808       H  0.89018010  0.98701614  0.33140194     0.36700
C2809       C  0.14172751  0.72598056  0.37690419    -0.27600
C2810       C  0.12203364  0.73687747  0.37317015     0.02000
C2811       C  0.10298863  0.72480263  0.36920982     0.30100
C2812       C  0.10385124  0.70205078  0.36888062    -0.19400
C2813       C  0.12361112  0.69099642  0.37249528    -0.28800
C2814       C  0.14264561  0.70325621  0.37669473     0.44100
C2815       C  0.12170281  0.76088276  0.37312576     0.05300
O2816       O  0.08346091  0.73509773  0.36569402    -0.57300
H2817       H  0.08899129  0.69306855  0.36572557     0.18300
O2818       O  0.16226417  0.69329711  0.38062996    -0.64000
H2819       H  0.15651279  0.73516557  0.37985946     0.16700
C2820       C  0.12789958  0.77269413  0.39172333     0.29000
C2821       C  0.12836054  0.79543451  0.39107695    -0.24900
C2822       C  0.12294115  0.80674285  0.37190978    -0.24200
C2823       C  0.11631372  0.79479848  0.35339153     0.40400
C2824       C  0.11580407  0.77204319  0.35411359    -0.26700
O2825       O  0.13295204  0.76212584  0.41076090    -0.58500
H2826       H  0.13322976  0.80419823  0.40560050     0.16000
O2827       O  0.11027445  0.80510986  0.33451456    -0.60000
H2828       H  0.11101705  0.76304647  0.33969788     0.14500
H2829       H  0.16282964  0.69121418  0.39664571     0.46300
H2830       H  0.14907444  0.76232255  0.41162752     0.41700
H2831       H  0.09430979  0.80734856  0.33581593     0.45200
H2832       H  0.07749290  0.73797868  0.38041875     0.36700
C2833       C  0.22712926  0.86563795  0.35304536    -0.27600
C2834       C  0.23863556  0.87057851  0.37210016     0.02000
C2835       C  0.22713437  0.87570169  0.39119154     0.30100
C2836       C  0.20430825  0.87623464  0.39096623    -0.19400
C2837       C  0.19258915  0.87161349  0.37179144    -0.28800
C2838       C  0.20431725  0.86600344  0.35276880     0.44100
C2839       C  0.26268995  0.87031468  0.37186114     0.05300
O2840       O  0.23808905  0.88048062  0.41007216    -0.57300
H2841       H  0.19579244  0.88046456  0.40581869     0.18300
O2842       O  0.19373637  0.86079428  0.33378894    -0.64000
H2843       H  0.23590126  0.86147154  0.33831460     0.16700
C2844       C  0.27420281  0.85078910  0.37490949     0.29000
C2845       C  0.29701334  0.85078297  0.37443916    -0.24900
C2846       C  0.30874227  0.87013479  0.37072777    -0.24200
C2847       C  0.29699902  0.88970016  0.36742952     0.40400
C2848       C  0.27417496  0.88965839  0.36814513    -0.26700
O2849       O  0.26327408  0.83168970  0.37871953    -0.58500
H2850       H  0.30551548  0.83554444  0.37707204     0.16000
O2851       O  0.30755940  0.90896203  0.36340676    -0.60000
H2852       H  0.26537811  0.90475471  0.36560611     0.14500
H2853       H  0.19150292  0.84480324  0.33444761     0.46300
H2854       H  0.26109182  0.82508274  0.36414706     0.41700
H2855       H  0.30914872  0.90962530  0.34735043     0.45200
H2856       H  0.24076132  0.86620629  0.41714008     0.36700
C2857       C  0.02330204  0.87942999  0.38990078    -0.27600
C2858       C  0.01208537  0.87304761  0.37103350     0.02000
C2859       C  0.02405674  0.86727480  0.35233773     0.30100
C2860       C  0.04683527  0.86800908  0.35272086    -0.19400
C2861       C  0.05809965  0.87410108  0.37172199    -0.28800
C2862       C  0.04605248  0.87984212  0.39042592     0.44100
C2863       C  0.98793600  0.87267389  0.37105759     0.05300
O2864       O  0.01368281  0.86063160  0.33368535    -0.57300
H2865       H  0.05570158  0.86339450  0.33818728     0.18300
O2866       O  0.05626667  0.88600405  0.40932215    -0.64000
H2867       H  0.01437459  0.88434919  0.40429112     0.16700
C2868       C  0.97634140  0.86190084  0.38766281     0.29000
C2869       C  0.95356266  0.86236777  0.38778717    -0.24900
C2870       C  0.94198224  0.87337017  0.37144011    -0.24200
C2871       C  0.95356474  0.88397392  0.35469554     0.40400
C2872       C  0.97634712  0.88362034  0.35464660    -0.26700
O2873       O  0.98713988  0.85018986  0.40336052    -0.58500
H2874       H  0.94492809  0.85390715  0.40063519     0.16000
O2875       O  0.94284089  0.89514820  0.33857509    -0.60000
H2876       H  0.98500177  0.89228538  0.34195335     0.14500
H2877       H  0.05843866  0.90195285  0.40795545     0.46300
H2878       H  0.98542137  0.85865617  0.41700377     0.41700
H2879       H  0.94058386  0.91001143  0.34449359     0.45200
H2880       H  0.01047114  0.84496628  0.33596494     0.36700
C2881       C  0.22881959  0.12684040  0.35466484    -0.27600
C2882       C  0.24028165  0.12079901  0.37346628     0.02000
C2883       C  0.22872111  0.11646752  0.39275619     0.30100
C2884       C  0.20593699  0.11776547  0.39290813    -0.19400
C2885       C  0.19432713  0.12326319  0.37393821    -0.28800
C2886       C  0.20607836  0.12817879  0.35477478     0.44100
C2887       C  0.26434947  0.11975351  0.37286121     0.05300
O2888       O  0.23963644  0.11186810  0.41172707    -0.57300
H2889       H  0.19736131  0.11425760  0.40791235     0.18300
O2890       O  0.19558604  0.13439519  0.33604552    -0.64000
H2891       H  0.23757009  0.13048594  0.33978441     0.16700
C2892       C  0.27558481  0.10047527  0.37813455     0.29000
C2893       C  0.29837341  0.10011534  0.37788316    -0.24900
C2894       C  0.31034613  0.11878521  0.37217437    -0.24200
C2895       C  0.29895680  0.13792101  0.36630169     0.40400
C2896       C  0.27618348  0.13822689  0.36661387    -0.26700
O2897       O  0.26444028  0.08184508  0.38337378    -0.58500
H2898       H  0.30666211  0.08516488  0.38227503     0.16000
O2899       O  0.30982817  0.15629710  0.35974176    -0.60000
H2900       H  0.26770690  0.15307171  0.36218989     0.14500
H2901       H  0.19500962  0.15052710  0.33667653     0.46300
H2902       H  0.26175291  0.07441223  0.36929197     0.41700
H2903       H  0.31055008  0.16572076  0.37284741     0.45200
H2904       H  0.23663304  0.09629194  0.41477253     0.36700
C2905       C  0.14506102  0.27162516  0.37470732    -0.27600
C2906       C  0.12560520  0.26084171  0.36969275     0.02000
C2907       C  0.10698705  0.27297184  0.36426460     0.30100
C2908       C  0.10784972  0.29575183  0.36445071    -0.19400
C2909       C  0.12729250  0.30674690  0.36971837    -0.28800
C2910       C  0.14606183  0.29438047  0.37470161     0.44100
C2911       C  0.12491107  0.23688759  0.37073253     0.05300
O2912       O  0.08770978  0.26269878  0.35954297    -0.57300
H2913       H  0.09321314  0.30480673  0.36051825     0.18300
O2914       O  0.16540054  0.30427621  0.37992183    -0.64000
H2915       H  0.15949846  0.26232138  0.37882353     0.16700
C2916       C  0.12501228  0.22431527  0.35165500     0.29000
C2917       C  0.12554633  0.20159533  0.35305197    -0.24900
C2918       C  0.12597163  0.19101553  0.37340898    -0.24200
C2919       C  0.12534488  0.20380764  0.39254647     0.40400
C2920       C  0.12494210  0.22655603  0.39105587    -0.26700
O2921       O  0.12472939  0.23410365  0.33157819    -0.58500
H2922       H  0.12577003  0.19227738  0.33807502     0.16000
O2923       O  0.12476491  0.19435209  0.41277195    -0.60000
H2924       H  0.12469223  0.23620485  0.40583383     0.14500
H2925       H  0.16504213  0.30609520  0.39596455     0.46300
H2926       H  0.14025630  0.23632745  0.32775477     0.41700
H2927       H  0.14002905  0.19468770  0.41807810     0.45200
H2928       H  0.08735329  0.26152873  0.34344045     0.36700
C2929       C  0.02542669  0.12010571  0.35613708    -0.27600
C2930       C  0.01409927  0.12703008  0.37470480     0.02000
C2931       C  0.02600201  0.13340782  0.39331625     0.30100
C2932       C  0.04876007  0.13220418  0.39331696    -0.19400
C2933       C  0.06009743  0.12523095  0.37471967    -0.28800
C2934       C  0.04816203  0.11935468  0.35594293     0.44100
C2935       C  0.98992547  0.12671906  0.37475465     0.05300
O2936       O  0.01557393  0.14097724  0.41156147    -0.57300
H2937       H  0.05755420  0.13709258  0.40782367     0.18300
O2938       O  0.05847030  0.11263798  0.33730586    -0.64000
H2939       H  0.01661092  0.11482554  0.34178740     0.16700
C2940       C  0.97770616  0.13572501  0.35746848     0.29000
C2941       C  0.95492250  0.13480684  0.35786954    -0.24900
C2942       C  0.94397036  0.12542580  0.37559155    -0.24200
C2943       C  0.95619894  0.11613356  0.39267537     0.40400
C2944       C  0.97891996  0.11674906  0.39210282    -0.26700
O2945       O  0.98782082  0.14577462  0.34028279    -0.58500
H2946       H  0.94579785  0.14199876  0.34457305     0.16000
O2947       O  0.94613398  0.10615480  0.40993103    -0.60000
H2948       H  0.98798715  0.10915576  0.40521006     0.14500
H2949       H  0.06009080  0.09664624  0.33887723     0.46300
H2950       H  0.99028167  0.16098516  0.34511942     0.41700
H2951       H  0.94428560  0.09074237  0.40541429     0.45200
H2952       H  0.01293144  0.15666343  0.40873666     0.36700
C2953       C  0.11766382  0.02230884  0.35662876    -0.27600
C2954       C  0.12390595  0.01058321  0.37516963     0.02000
C2955       C  0.13055971  0.02192832  0.39394951     0.30100
C2956       C  0.13120149  0.04476313  0.39386114    -0.19400
C2957       C  0.12515552  0.05659757  0.37519571    -0.28800
C2958       C  0.11802190  0.04507602  0.35657461     0.44100
C2959       C  0.12399139  0.98650042  0.37441599     0.05300
O2960       O  0.13748540  0.01079290  0.41205235    -0.57300
H2961       H  0.13678876  0.05318632  0.40832821     0.18300
O2962       O  0.11124478  0.05584129  0.33820504    -0.64000
H2963       H  0.11235296  0.01373210  0.34213925     0.16700
C2964       C  0.11066865  0.97415030  0.38837892     0.29000
C2965       C  0.11150029  0.95138212  0.38769769    -0.24900
C2966       C  0.12505684  0.94064409  0.37273954    -0.24200
C2967       C  0.13797685  0.95300526  0.35840422     0.40400
C2968       C  0.13738350  0.97577294  0.35931978    -0.26700
O2969       O  0.09657451  0.98417963  0.40250318    -0.58500
H2970       H  0.10120747  0.94207677  0.39859647     0.16000
O2971       O  0.15157149  0.94301161  0.34377074    -0.60000
H2972       H  0.14762039  0.98511462  0.34840422     0.14500
H2973       H  0.09550477  0.05865448  0.34049649     0.46300
H2974       H  0.08305534  0.98662140  0.39397446     0.41700
H2975       H  0.16511246  0.93984417  0.35203126     0.45200
H2976       H  0.12545032  0.01212025  0.42273910     0.36700
loop_ 
_geom_bond_atom_site_label_1 
_geom_bond_atom_site_label_2 
_geom_bond_distance 
_geom_bond_site_symmetry_2 
_ccdc_geom_bond_type 
O1           Cu9   2.018       .  S
O1           C11   1.279       .  A
O2           Cu9   2.013       .  S
O2           C12   1.279       .  A
O3           Cu9   2.011       .  S
O3           C13   1.279       .  A
O4           Cu9   2.014       .  S
O4           C14   1.279       .  A
O5          Cu10   1.998       .  S
O5           C14   1.276       .  A
O6          Cu10   1.991       .  S
O6           C13   1.276       .  A
O7          Cu10   1.998       .  S
O7           C12   1.277       .  A
O8          Cu10   2.001       .  S
O8           C11   1.277       .  A
Cu9         Cu10   2.368       .  S
C11        C2957   1.485       .  S
C12        C2918   1.485       .  S
C13        C2933   1.480       .  S
C14        C2885   1.483       .  S
O15         Cu23   2.012       .  S
O15          C25   1.278       .  A
O16         Cu23   2.005       .  S
O16          C26   1.278       .  A
O17         Cu23   2.005       .  S
O17          C27   1.278       .  A
O18         Cu23   2.006       .  S
O18          C28   1.278       .  A
O19         Cu24   2.017       .  S
O19          C28   1.279       .  A
O20         Cu24   2.004       .  S
O20          C27   1.278       .  A
O21         Cu24   1.998       .  S
O21          C26   1.277       .  A
O22         Cu24   2.001       .  S
O22          C25   1.276       .  A
Cu23        Cu24   2.370       .  S
C25        C2966   1.473       .  S
C26        C2822   1.479       .  S
C27        C2861   1.481       .  S
C28        C2837   1.488       .  S
O29         Cu37   2.007       .  S
O29          C39   1.278       .  A
O30         Cu37   2.007       .  S
O30          C40   1.278       .  A
O31         Cu37   2.011       .  S
O31          C41   1.278       .  A
O32         Cu37   2.009       .  S
O32          C42   1.279       .  A
O33         Cu38   1.998       .  S
O33          C42   1.276       .  A
O34         Cu38   1.994       .  S
O34          C41   1.276       .  A
O35         Cu38   2.012       .  S
O35          C40   1.279       .  A
O36         Cu38   2.004       .  S
O36          C39   1.277       .  A
Cu37        Cu38   2.371       .  S
C39        C2798   1.478       .  S
C40        C2750   1.484       .  S
C41        C2942   1.476       .  S
C42        C2765   1.484       .  S
O43         Cu51   1.996       .  S
O43          C53   1.276       .  A
O44         Cu51   1.999       .  S
O44          C54   1.277       .  A
O45         Cu51   2.005       .  S
O45          C55   1.278       .  A
O46         Cu51   2.007       .  S
O46          C56   1.277       .  A
O47         Cu52   2.001       .  S
O47          C56   1.277       .  A
O48         Cu52   2.000       .  S
O48          C55   1.277       .  A
O49         Cu52   2.003       .  S
O49          C54   1.277       .  A
O50         Cu52   2.007       .  S
O50          C53   1.278       .  A
Cu51        Cu52   2.375       .  S
C53        C2789   1.474       .  S
C54        C2717   1.477       .  S
C55        C2870   1.475       .  S
C56        C2693   1.467       .  S
O57         Cu65   2.010       .  S
O57          C67   1.277       .  A
O58         Cu65   2.008       .  S
O58          C68   1.278       .  A
O59         Cu65   2.007       .  S
O59          C69   1.278       .  A
O60         Cu65   2.013       .  S
O60          C70   1.279       .  A
O61         Cu66   1.999       .  S
O61          C70   1.277       .  A
O62         Cu66   2.004       .  S
O62          C69   1.277       .  A
O63         Cu66   2.009       .  S
O63          C68   1.278       .  A
O64         Cu66   2.011       .  S
O64          C67   1.278       .  A
Cu65        Cu66   2.369       .  S
C67        C2669   1.474       .  S
C68        C2630   1.487       .  S
C69        C2645   1.484       .  S
C70        C2909   1.483       .  S
O71         Cu79   2.015       .  S
O71          C81   1.280       .  A
O72         Cu79   2.014       .  S
O72          C82   1.278       .  A
O73         Cu79   2.001       .  S
O73          C83   1.277       .  A
O74         Cu79   2.003       .  S
O74          C84   1.278       .  A
O75         Cu80   2.001       .  S
O75          C84   1.277       .  A
O76         Cu80   2.001       .  S
O76          C83   1.278       .  A
O77         Cu80   2.001       .  S
O77          C82   1.278       .  A
O78         Cu80   2.004       .  S
O78          C81   1.277       .  A
Cu79        Cu80   2.369       .  S
C81        C2678   1.488       .  S
C82        C2573   1.482       .  S
C83        C2597   1.480       .  S
C84        C2549   1.482       .  S
O85         Cu93   1.998       .  S
O85          C95   1.277       .  A
O86         Cu93   2.006       .  S
O86          C96   1.278       .  A
O87         Cu93   1.998       .  S
O87          C97   1.277       .  A
O88         Cu93   2.001       .  S
O88          C98   1.277       .  A
O89         Cu94   2.005       .  S
O89          C98   1.278       .  A
O90         Cu94   2.005       .  S
O90          C97   1.278       .  A
O91         Cu94   2.008       .  S
O91          C96   1.278       .  A
O92         Cu94   2.013       .  S
O92          C95   1.279       .  A
Cu93        Cu94   2.370       .  S
C95        C2525   1.480       .  S
C96        C2510   1.483       .  S
C97        C2813   1.481       .  S
C98        C2654   1.473       .  S
O99        Cu107   2.012       .  S
O99         C109   1.278       .  A
O100       Cu107   2.002       .  S
O100        C110   1.278       .  A
O101       Cu107   2.000       .  S
O101        C111   1.277       .  A
O102       Cu107   1.998       .  S
O102        C112   1.277       .  A
O103       Cu108   2.010       .  S
O103        C112   1.278       .  A
O104       Cu108   2.001       .  S
O104        C111   1.277       .  A
O105       Cu108   2.014       .  S
O105        C110   1.278       .  A
O106       Cu108   2.003       .  S
O106        C109   1.278       .  A
Cu107      Cu108   2.372       .  S
C109       C2453   1.487       .  S
C110       C2534   1.478       .  S
C111       C2606   1.471       .  S
C112       C2486   1.475       .  S
O113       Cu121   1.997       .  S
O113        C123   1.277       .  A
O114       Cu121   2.006       .  S
O114        C124   1.278       .  A
O115       Cu121   1.998       .  S
O115        C125   1.278       .  A
O116       Cu121   2.004       .  S
O116        C126   1.277       .  A
O117       Cu122   2.007       .  S
O117        C126   1.278       .  A
O118       Cu122   2.002       .  S
O118        C125   1.277       .  A
O119       Cu122   2.007       .  S
O119        C124   1.278       .  A
O120       Cu122   2.007       .  S
O120        C123   1.278       .  A
Cu121      Cu122   2.371       .  S
C123       C2405   1.478       .  S
C124       C2774   1.482       .  S
C125       C2390   1.480       .  S
C126       C2429   1.476       .  S
O127       Cu135   1.994       .  S
O127        C137   1.276       .  A
O128       Cu135   2.001       .  S
O128        C138   1.276       .  A
O129       Cu135   2.010       .  S
O129        C139   1.279       .  A
O130       Cu135   2.005       .  S
O130        C140   1.278       .  A
O131       Cu136   2.006       .  S
O131        C140   1.278       .  A
O132       Cu136   2.011       .  S
O132        C139   1.278       .  A
O133       Cu136   2.016       .  S
O133        C138   1.279       .  A
O134       Cu136   2.014       .  S
O134        C137   1.278       .  A
Cu135      Cu136   2.370       .  S
C137       C2357   1.472       .  S
C138       C2309   1.478       .  S
C139       C2333   1.488       .  S
C140       C2438   1.483       .  S
O141       Cu149   2.013       .  S
O141        C151   1.279       .  A
O142       Cu149   2.009       .  S
O142        C152   1.279       .  A
O143       Cu149   2.010       .  S
O143        C153   1.278       .  A
O144       Cu149   2.008       .  S
O144        C154   1.278       .  A
O145       Cu150   2.005       .  S
O145        C154   1.277       .  A
O146       Cu150   1.995       .  S
O146        C153   1.277       .  A
O147       Cu150   1.997       .  S
O147        C152   1.277       .  A
O148       Cu150   1.998       .  S
O148        C151   1.277       .  A
Cu149      Cu150   2.372       .  S
C151       C2414   1.477       .  S
C152       C2894   1.483       .  S
C153       C2261   1.472       .  S
C154       C2285   1.481       .  S
O155       Cu163   2.000       .  S
O155        C165   1.276       .  A
O156       Cu163   1.993       .  S
O156        C166   1.276       .  A
O157       Cu163   2.019       .  S
O157        C167   1.280       .  A
O158       Cu163   2.022       .  S
O158        C168   1.280       .  A
O159       Cu164   1.996       .  S
O159        C168   1.276       .  A
O160       Cu164   1.994       .  S
O160        C167   1.276       .  A
O161       Cu164   2.021       .  S
O161        C166   1.280       .  A
O162       Cu164   2.025       .  S
O162        C165   1.281       .  A
Cu163      Cu164   2.367       .  S
C165       C2366   1.489       .  S
C166       C2237   1.487       .  S
C167       C2213   1.484       .  S
C168       C2294   1.484       .  S
O169       Cu177   2.011       .  S
O169        C179   1.278       .  A
O170       Cu177   2.004       .  S
O170        C180   1.279       .  A
O171       Cu177   1.998       .  S
O171        C181   1.276       .  A
O172       Cu177   2.007       .  S
O172        C182   1.278       .  A
O173       Cu178   2.002       .  S
O173        C182   1.278       .  A
O174       Cu178   2.003       .  S
O174        C181   1.278       .  A
O175       Cu178   1.996       .  S
O175        C180   1.276       .  A
O176       Cu178   2.002       .  S
O176        C179   1.277       .  A
Cu177      Cu178   2.370       .  S
C179       C2189   1.476       .  S
C180       C2150   1.481       .  S
C181       C2726   1.482       .  S
C182       C2174   1.482       .  S
O183       Cu191   1.997       .  S
O183        C193   1.277       .  A
O184       Cu191   1.997       .  S
O184        C194   1.276       .  A
O185       Cu191   2.015       .  S
O185        C195   1.279       .  A
O186       Cu191   2.020       .  S
O186        C196   1.280       .  A
O187       Cu192   2.009       .  S
O187        C196   1.277       .  A
O188       Cu192   2.002       .  S
O188        C195   1.277       .  A
O189       Cu192   2.015       .  S
O189        C194   1.280       .  A
O190       Cu192   2.020       .  S
O190        C193   1.280       .  A
Cu191      Cu192   2.368       .  S
C193       C2117   1.488       .  S
C194       C2069   1.485       .  S
C195       C2198   1.484       .  S
C196       C2093   1.485       .  S
O197       Cu205   1.992       .  S
O197        C207   1.276       .  A
O198       Cu205   1.999       .  S
O198        C208   1.276       .  A
O199       Cu205   2.012       .  S
O199        C209   1.279       .  A
O200       Cu205   2.011       .  S
O200        C210   1.279       .  A
O201       Cu206   2.003       .  S
O201        C210   1.277       .  A
O202       Cu206   2.007       .  S
O202        C209   1.277       .  A
O203       Cu206   2.004       .  S
O203        C208   1.278       .  A
O204       Cu206   2.011       .  S
O204        C207   1.278       .  A
Cu205      Cu206   2.372       .  S
C207       C2021   1.474       .  S
C208       C2045   1.473       .  S
C209       C2741   1.486       .  S
C210       C2165   1.477       .  S
O211       Cu219   2.008       .  S
O211        C221   1.278       .  A
O212       Cu219   2.008       .  S
O212        C222   1.278       .  A
O213       Cu219   2.001       .  S
O213        C223   1.277       .  A
O214       Cu219   2.000       .  S
O214        C224   1.277       .  A
O215       Cu220   2.019       .  S
O215        C224   1.279       .  A
O216       Cu220   2.004       .  S
O216        C223   1.278       .  A
O217       Cu220   2.010       .  S
O217        C222   1.279       .  A
O218       Cu220   2.009       .  S
O218        C221   1.277       .  A
Cu219      Cu220   2.370       .  S
C221       C2126   1.474       .  S
C222       C1997   1.487       .  S
C223       C2054   1.477       .  S
C224       C1973   1.487       .  S
O225       Cu233   2.012       .  S
O225        C235   1.278       .  A
O226       Cu233   2.003       .  S
O226        C236   1.278       .  A
O227       Cu233   2.003       .  S
O227        C237   1.278       .  A
O228       Cu233   2.002       .  S
O228        C238   1.278       .  A
O229       Cu234   2.001       .  S
O229        C238   1.276       .  A
O230       Cu234   2.000       .  S
O230        C237   1.277       .  A
O231       Cu234   2.014       .  S
O231        C236   1.279       .  A
O232       Cu234   2.012       .  S
O232        C235   1.279       .  A
Cu233      Cu234   2.369       .  S
C235       C2846   1.488       .  S
C236       C1934   1.487       .  S
C237       C1910   1.481       .  S
C238       C1949   1.473       .  S
O239       Cu247   2.008       .  S
O239        C249   1.278       .  A
O240       Cu247   2.006       .  S
O240        C250   1.278       .  A
O241       Cu247   2.003       .  S
O241        C251   1.278       .  A
O242       Cu247   2.012       .  S
O242        C252   1.278       .  A
O243       Cu248   2.001       .  S
O243        C252   1.278       .  A
O244       Cu248   2.002       .  S
O244        C251   1.277       .  A
O245       Cu248   2.011       .  S
O245        C250   1.278       .  A
O246       Cu248   2.007       .  S
O246        C249   1.278       .  A
Cu247      Cu248   2.370       .  S
C249       C1829   1.484       .  S
C250       C1886   1.481       .  S
C251       C1958   1.478       .  S
C252       C1862   1.484       .  S
O253       Cu261   2.008       .  S
O253        C263   1.279       .  A
O254       Cu261   2.014       .  S
O254        C264   1.278       .  A
O255       Cu261   2.016       .  S
O255        C265   1.279       .  A
O256       Cu261   2.020       .  S
O256        C266   1.279       .  A
O257       Cu262   1.995       .  S
O257        C266   1.277       .  A
O258       Cu262   2.001       .  S
O258        C265   1.277       .  A
O259       Cu262   2.000       .  S
O259        C264   1.277       .  A
O260       Cu262   2.003       .  S
O260        C263   1.277       .  A
Cu261      Cu262   2.369       .  S
C263       C1757   1.483       .  S
C264       C1805   1.481       .  S
C265       C1877   1.483       .  S
C266       C1781   1.484       .  S
O267       Cu275   2.011       .  S
O267        C277   1.279       .  A
O268       Cu275   2.016       .  S
O268        C278   1.279       .  A
O269       Cu275   2.003       .  S
O269        C279   1.277       .  A
O270       Cu275   2.011       .  S
O270        C280   1.278       .  A
O271       Cu276   2.005       .  S
O271        C280   1.278       .  A
O272       Cu276   2.012       .  S
O272        C279   1.279       .  A
O273       Cu276   1.998       .  S
O273        C278   1.277       .  A
O274       Cu276   1.996       .  S
O274        C277   1.275       .  A
Cu275      Cu276   2.372       .  S
C277       C1925   1.470       .  S
C278       C2702   1.480       .  S
C279       C1742   1.485       .  S
C280       C1814   1.478       .  S
O281       Cu289   1.997       .  S
O281        C291   1.276       .  A
O282       Cu289   2.000       .  S
O282        C292   1.276       .  A
O283       Cu289   2.015       .  S
O283        C293   1.279       .  A
O284       Cu289   2.007       .  S
O284        C294   1.278       .  A
O285       Cu290   2.007       .  S
O285        C294   1.278       .  A
O286       Cu290   1.999       .  S
O286        C293   1.277       .  A
O287       Cu290   2.008       .  S
O287        C292   1.278       .  A
O288       Cu290   2.008       .  S
O288        C291   1.279       .  A
Cu289      Cu290   2.370       .  S
C291       C1838   1.483       .  S
C292       C1694   1.470       .  S
C293       C2477   1.485       .  S
C294       C1718   1.481       .  S
O295       Cu303   2.007       .  S
O295        C305   1.277       .  A
O296       Cu303   2.006       .  S
O296        C306   1.278       .  A
O297       Cu303   2.001       .  S
O297        C307   1.277       .  A
O298       Cu303   2.006       .  S
O298        C308   1.278       .  A
O299       Cu304   2.004       .  S
O299        C308   1.277       .  A
O300       Cu304   2.007       .  S
O300        C307   1.278       .  A
O301       Cu304   2.008       .  S
O301        C306   1.278       .  A
O302       Cu304   2.002       .  S
O302        C305   1.277       .  A
Cu303      Cu304   2.370       .  S
C305       C1670   1.473       .  S
C306       C2246   1.485       .  S
C307       C1709   1.480       .  S
C308       C2558   1.485       .  S
O309       Cu317   2.011       .  S
O309        C319   1.278       .  A
O310       Cu317   2.001       .  S
O310        C320   1.278       .  A
O311       Cu317   2.008       .  S
O311        C321   1.278       .  A
O312       Cu317   2.001       .  S
O312        C322   1.277       .  A
O313       Cu318   2.006       .  S
O313        C322   1.278       .  A
O314       Cu318   2.011       .  S
O314        C321   1.279       .  A
O315       Cu318   2.001       .  S
O315        C320   1.277       .  A
O316       Cu318   1.998       .  S
O316        C319   1.277       .  A
Cu317      Cu318   2.369       .  S
C319       C2318   1.485       .  S
C320       C1661   1.481       .  S
C321       C2006   1.488       .  S
C322       C1646   1.474       .  S
O323       Cu331   2.008       .  S
O323        C333   1.278       .  A
O324       Cu331   2.006       .  S
O324        C334   1.278       .  A
O325       Cu331   2.016       .  S
O325        C335   1.279       .  A
O326       Cu331   2.015       .  S
O326        C336   1.279       .  A
O327       Cu332   1.994       .  S
O327        C336   1.277       .  A
O328       Cu332   1.990       .  S
O328        C335   1.276       .  A
O329       Cu332   2.003       .  S
O329        C334   1.278       .  A
O330       Cu332   2.004       .  S
O330        C333   1.278       .  A
Cu331      Cu332   2.369       .  S
C333       C1637   1.481       .  S
C334       C2078   1.483       .  S
C335       C1685   1.484       .  S
C336       C1790   1.482       .  S
O337       Cu345   2.008       .  S
O337        C347   1.277       .  A
O338       Cu345   1.996       .  S
O338        C348   1.277       .  A
O339       Cu345   2.009       .  S
O339        C349   1.279       .  A
O340       Cu345   2.020       .  S
O340        C350   1.279       .  A
O341       Cu346   1.997       .  S
O341        C350   1.277       .  A
O342       Cu346   2.000       .  S
O342        C349   1.277       .  A
O343       Cu346   2.010       .  S
O343        C348   1.278       .  A
O344       Cu346   2.011       .  S
O344        C347   1.279       .  A
Cu345      Cu346   2.370       .  S
C347       C1622   1.484       .  S
C348       C2270   1.481       .  S
C349       C1589   1.480       .  S
C350       C1565   1.483       .  S
O351       Cu359   2.003       .  S
O351        C361   1.277       .  A
O352       Cu359   2.000       .  S
O352        C362   1.276       .  A
O353       Cu359   2.005       .  S
O353        C363   1.278       .  A
O354       Cu359   2.010       .  S
O354        C364   1.278       .  A
O355       Cu360   2.004       .  S
O355        C364   1.278       .  A
O356       Cu360   2.015       .  S
O356        C363   1.278       .  A
O357       Cu360   2.013       .  S
O357        C362   1.279       .  A
O358       Cu360   2.011       .  S
O358        C361   1.279       .  A
Cu359      Cu360   2.370       .  S
C361       C1517   1.486       .  S
C362       C1541   1.475       .  S
C363       C1613   1.481       .  S
C364       C2222   1.486       .  S
O365       Cu373   2.015       .  S
O365        C375   1.279       .  A
O366       Cu373   2.021       .  S
O366        C376   1.280       .  A
O367       Cu373   2.003       .  S
O367        C377   1.278       .  A
O368       Cu373   2.004       .  S
O368        C378   1.277       .  A
O369       Cu374   2.018       .  S
O369        C378   1.279       .  A
O370       Cu374   2.012       .  S
O370        C377   1.278       .  A
O371       Cu374   2.004       .  S
O371        C376   1.277       .  A
O372       Cu374   2.005       .  S
O372        C375   1.277       .  A
Cu373      Cu374   2.368       .  S
C375       C1550   1.484       .  S
C376       C1469   1.488       .  S
C377       C1853   1.486       .  S
C378       C1493   1.484       .  S
O379       Cu387   2.015       .  S
O379        C389   1.278       .  A
O380       Cu387   2.012       .  S
O380        C390   1.279       .  A
O381       Cu387   2.010       .  S
O381        C391   1.278       .  A
O382       Cu387   2.010       .  S
O382        C392   1.278       .  A
O383       Cu388   2.008       .  S
O383        C392   1.278       .  A
O384       Cu388   2.016       .  S
O384        C391   1.280       .  A
O385       Cu388   1.995       .  S
O385        C390   1.276       .  A
O386       Cu388   2.006       .  S
O386        C389   1.278       .  A
Cu387      Cu388   2.369       .  S
C389       C1502   1.480       .  S
C390       C1901   1.484       .  S
C391       C1445   1.491       .  S
C392       C1598   1.478       .  S
O393       Cu401   1.990       .  S
O393        C403   1.275       .  A
O394       Cu401   1.993       .  S
O394        C404   1.276       .  A
O395       Cu401   2.009       .  S
O395        C405   1.279       .  A
O396       Cu401   2.016       .  S
O396        C406   1.279       .  A
O397       Cu402   2.002       .  S
O397        C406   1.277       .  A
O398       Cu402   2.001       .  S
O398        C405   1.277       .  A
O399       Cu402   2.014       .  S
O399        C404   1.279       .  A
O400       Cu402   2.018       .  S
O400        C403   1.280       .  A
Cu401      Cu402   2.369       .  S
C403       C1373   1.485       .  S
C404       C1406   1.474       .  S
C405       C2030   1.483       .  S
C406       C1430   1.485       .  S
O407       Cu415   2.001       .  S
O407        C417   1.277       .  A
O408       Cu415   1.997       .  S
O408        C418   1.276       .  A
O409       Cu415   2.017       .  S
O409        C419   1.280       .  A
O410       Cu415   2.014       .  S
O410        C420   1.279       .  A
O411       Cu416   2.000       .  S
O411        C420   1.277       .  A
O412       Cu416   1.993       .  S
O412        C419   1.276       .  A
O413       Cu416   2.019       .  S
O413        C418   1.280       .  A
O414       Cu416   2.026       .  S
O414        C417   1.280       .  A
Cu415      Cu416   2.369       .  S
C417       C1982   1.491       .  S
C418       C1421   1.478       .  S
C419       C1349   1.479       .  S
C420       C1325   1.486       .  S
O421       Cu429   2.004       .  S
O421        C431   1.278       .  A
O422       Cu429   2.008       .  S
O422        C432   1.278       .  A
O423       Cu429   2.007       .  S
O423        C433   1.278       .  A
O424       Cu429   1.998       .  S
O424        C434   1.277       .  A
O425       Cu430   2.005       .  S
O425        C434   1.278       .  A
O426       Cu430   2.005       .  S
O426        C433   1.278       .  A
O427       Cu430   1.991       .  S
O427        C432   1.276       .  A
O428       Cu430   2.001       .  S
O428        C431   1.277       .  A
Cu429      Cu430   2.373       .  S
C431       C1397   1.478       .  S
C432       C1277   1.475       .  S
C433       C2621   1.478       .  S
C434       C1310   1.474       .  S
O435       Cu443   2.005       .  S
O435        C445   1.277       .  A
O436       Cu443   2.007       .  S
O436        C446   1.278       .  A
O437       Cu443   2.008       .  S
O437        C447   1.278       .  A
O438       Cu443   2.013       .  S
O438        C448   1.278       .  A
O439       Cu444   2.001       .  S
O439        C448   1.277       .  A
O440       Cu444   2.008       .  S
O440        C447   1.278       .  A
O441       Cu444   2.003       .  S
O441        C446   1.278       .  A
O442       Cu444   1.999       .  S
O442        C445   1.277       .  A
Cu443      Cu444   2.371       .  S
C445       C1301   1.474       .  S
C446       C2582   1.484       .  S
C447       C1262   1.483       .  S
C448       C1358   1.480       .  S
O449       Cu457   1.999       .  S
O449        C459   1.277       .  A
O450       Cu457   2.003       .  S
O450        C460   1.278       .  A
O451       Cu457   2.005       .  S
O451        C461   1.278       .  A
O452       Cu457   2.012       .  S
O452        C462   1.278       .  A
O453       Cu458   2.004       .  S
O453        C462   1.278       .  A
O454       Cu458   2.010       .  S
O454        C461   1.278       .  A
O455       Cu458   2.006       .  S
O455        C460   1.278       .  A
O456       Cu458   2.016       .  S
O456        C459   1.279       .  A
Cu457      Cu458   2.371       .  S
C459       C1229   1.479       .  S
C460       C1733   1.483       .  S
C461       C1190   1.478       .  S
C462       C1205   1.481       .  S
O463       Cu471   2.000       .  S
O463        C473   1.277       .  A
O464       Cu471   1.999       .  S
O464        C474   1.277       .  A
O465       Cu471   2.000       .  S
O465        C475   1.277       .  A
O466       Cu471   1.992       .  S
O466        C476   1.277       .  A
O467       Cu472   2.018       .  S
O467        C476   1.279       .  A
O468       Cu472   2.010       .  S
O468        C475   1.279       .  A
O469       Cu472   2.018       .  S
O469        C474   1.279       .  A
O470       Cu472   2.007       .  S
O470        C473   1.278       .  A
Cu471      Cu472   2.371       .  S
C473       C1766   1.477       .  S
C474       C1238   1.483       .  S
C475       C1166   1.480       .  S
C476       C1142   1.481       .  S
O477       Cu485   2.015       .  S
O477        C487   1.279       .  A
O478       Cu485   2.007       .  S
O478        C488   1.278       .  A
O479       Cu485   2.011       .  S
O479        C489   1.279       .  A
O480       Cu485   2.007       .  S
O480        C490   1.278       .  A
O481       Cu486   2.000       .  S
O481        C490   1.277       .  A
O482       Cu486   1.998       .  S
O482        C489   1.276       .  A
O483       Cu486   2.007       .  S
O483        C488   1.278       .  A
O484       Cu486   2.006       .  S
O484        C487   1.278       .  A
Cu485      Cu486   2.370       .  S
C487       C2342   1.486       .  S
C488       C1109   1.481       .  S
C489       C1157   1.475       .  S
C490       C1085   1.483       .  S
O491       Cu499   2.011       .  S
O491        C501   1.278       .  A
O492       Cu499   2.012       .  S
O492        C502   1.278       .  A
O493       Cu499   2.022       .  S
O493        C503   1.280       .  A
O494       Cu499   2.019       .  S
O494        C504   1.280       .  A
O495       Cu500   1.996       .  S
O495        C504   1.276       .  A
O496       Cu500   1.994       .  S
O496        C503   1.276       .  A
O497       Cu500   1.999       .  S
O497        C502   1.278       .  A
O498       Cu500   1.994       .  S
O498        C501   1.277       .  A
Cu499      Cu500   2.369       .  S
C501       C2381   1.481       .  S
C502       C1118   1.481       .  S
C503       C1214   1.480       .  S
C504       C1070   1.487       .  S
O505       Cu513   2.006       .  S
O505        C515   1.277       .  A
O506       Cu513   2.014       .  S
O506        C516   1.279       .  A
O507       Cu513   2.000       .  S
O507        C517   1.277       .  A
O508       Cu513   1.999       .  S
O508        C518   1.277       .  A
O509       Cu514   2.012       .  S
O509        C518   1.278       .  A
O510       Cu514   2.004       .  S
O510        C517   1.277       .  A
O511       Cu514   2.004       .  S
O511        C516   1.278       .  A
O512       Cu514   2.007       .  S
O512        C515   1.277       .  A
Cu513      Cu514   2.371       .  S
C515       C2501   1.472       .  S
C516       C1046   1.486       .  S
C517       C1022   1.468       .  S
C518        C989   1.485       .  S
O519       Cu527   2.007       .  S
O519        C529   1.277       .  A
O520       Cu527   2.006       .  S
O520        C530   1.277       .  A
O521       Cu527   2.003       .  S
O521        C531   1.278       .  A
O522       Cu527   2.009       .  S
O522        C532   1.279       .  A
O523       Cu528   1.991       .  S
O523        C532   1.276       .  A
O524       Cu528   2.002       .  S
O524        C531   1.278       .  A
O525       Cu528   2.010       .  S
O525        C530   1.278       .  A
O526       Cu528   2.011       .  S
O526        C529   1.279       .  A
Cu527      Cu528   2.370       .  S
C529       C2462   1.483       .  S
C530       C1037   1.476       .  S
C531        C965   1.483       .  S
C532        C950   1.480       .  S
O533       Cu541   2.005       .  S
O533        C543   1.277       .  A
O534       Cu541   2.017       .  S
O534        C544   1.279       .  A
O535       Cu541   2.001       .  S
O535        C545   1.277       .  A
O536       Cu541   2.010       .  S
O536        C546   1.278       .  A
O537       Cu542   2.005       .  S
O537        C546   1.278       .  A
O538       Cu542   2.013       .  S
O538        C545   1.279       .  A
O539       Cu542   2.000       .  S
O539        C544   1.277       .  A
O540       Cu542   2.005       .  S
O540        C543   1.277       .  A
Cu541      Cu542   2.372       .  S
C543        C926   1.471       .  S
C544       C2102   1.486       .  S
C545        C893   1.480       .  S
C546        C974   1.475       .  S
O547       Cu555   2.006       .  S
O547        C557   1.278       .  A
O548       Cu555   2.005       .  S
O548        C558   1.277       .  A
O549       Cu555   1.996       .  S
O549        C559   1.276       .  A
O550       Cu555   1.996       .  S
O550        C560   1.276       .  A
O551       Cu556   2.003       .  S
O551        C560   1.278       .  A
O552       Cu556   2.003       .  S
O552        C559   1.278       .  A
O553       Cu556   2.010       .  S
O553        C558   1.279       .  A
O554       Cu556   2.009       .  S
O554        C557   1.279       .  A
Cu555      Cu556   2.368       .  S
C557        C878   1.485       .  S
C558       C1013   1.485       .  S
C559        C917   1.482       .  S
C560       C2141   1.481       .  S
O561       Cu569   2.006       .  S
O561        C571   1.278       .  A
O562       Cu569   2.006       .  S
O562        C572   1.277       .  A
O563       Cu569   2.000       .  S
O563        C573   1.277       .  A
O564       Cu569   1.995       .  S
O564        C574   1.276       .  A
O565       Cu570   2.016       .  S
O565        C574   1.280       .  A
O566       Cu570   2.010       .  S
O566        C573   1.279       .  A
O567       Cu570   2.008       .  S
O567        C572   1.278       .  A
O568       Cu570   2.012       .  S
O568        C571   1.278       .  A
Cu569      Cu570   2.369       .  S
C571       C1574   1.488       .  S
C572        C845   1.475       .  S
C573        C830   1.480       .  S
C574       C1286   1.485       .  S
O575       Cu583   2.005       .  S
O575        C585   1.278       .  A
O576       Cu583   2.001       .  S
O576        C586   1.276       .  A
O577       Cu583   2.011       .  S
O577        C587   1.278       .  A
O578       Cu583   2.006       .  S
O578        C588   1.278       .  A
O579       Cu584   2.003       .  S
O579        C588   1.277       .  A
O580       Cu584   2.002       .  S
O580        C587   1.277       .  A
O581       Cu584   2.016       .  S
O581        C586   1.280       .  A
O582       Cu584   2.023       .  S
O582        C585   1.279       .  A
Cu583      Cu584   2.370       .  S
C585       C1454   1.487       .  S
C586        C854   1.486       .  S
C587        C998   1.479       .  S
C588        C806   1.475       .  S
O589       Cu597   2.009       .  S
O589        C599   1.278       .  A
O590       Cu597   2.009       .  S
O590        C600   1.278       .  A
O591       Cu597   1.991       .  S
O591        C601   1.276       .  A
O592       Cu597   1.996       .  S
O592        C602   1.276       .  A
O593       Cu598   2.025       .  S
O593        C602   1.281       .  A
O594       Cu598   2.026       .  S
O594        C601   1.280       .  A
O595       Cu598   2.007       .  S
O595        C600   1.278       .  A
O596       Cu598   2.012       .  S
O596        C599   1.278       .  A
Cu597      Cu598   2.370       .  S
C599        C797   1.481       .  S
C600        C869   1.477       .  S
C601       C1181   1.485       .  S
C602        C773   1.483       .  S
O603       Cu611   2.017       .  S
O603        C613   1.280       .  A
O604       Cu611   2.013       .  S
O604        C614   1.278       .  A
O605       Cu611   2.013       .  S
O605        C615   1.278       .  A
O606       Cu611   2.008       .  S
O606        C616   1.278       .  A
O607       Cu612   2.004       .  S
O607        C616   1.277       .  A
O608       Cu612   2.008       .  S
O608        C615   1.278       .  A
O609       Cu612   2.007       .  S
O609        C614   1.278       .  A
O610       Cu612   2.000       .  S
O610        C613   1.277       .  A
Cu611      Cu612   2.371       .  S
C613        C782   1.482       .  S
C614       C1061   1.485       .  S
C615        C821   1.482       .  S
C616       C1382   1.476       .  S
O617       Cu625   1.989       .  S
O617        C627   1.275       .  A
O618       Cu625   2.001       .  S
O618        C628   1.277       .  A
O619       Cu625   2.018       .  S
O619        C629   1.279       .  A
O620       Cu625   2.014       .  S
O620        C630   1.279       .  A
O621       Cu626   2.002       .  S
O621        C630   1.277       .  A
O622       Cu626   2.000       .  S
O622        C629   1.276       .  A
O623       Cu626   2.001       .  S
O623        C628   1.277       .  A
O624       Cu626   2.007       .  S
O624        C627   1.279       .  A
Cu625      Cu626   2.372       .  S
C627        C941   1.479       .  S
C628        C749   1.475       .  S
C629       C1478   1.478       .  S
C630        C725   1.481       .  S
O631       Cu639   2.007       .  S
O631        C641   1.278       .  A
O632       Cu639   2.012       .  S
O632        C642   1.278       .  A
O633       Cu639   2.007       .  S
O633        C643   1.278       .  A
O634       Cu639   2.001       .  S
O634        C644   1.277       .  A
O635       Cu640   2.010       .  S
O635        C644   1.279       .  A
O636       Cu640   2.004       .  S
O636        C643   1.277       .  A
O637       Cu640   2.015       .  S
O637        C642   1.279       .  A
O638       Cu640   2.002       .  S
O638        C641   1.277       .  A
Cu639      Cu640   2.369       .  S
C641       C1133   1.484       .  S
C642        C710   1.482       .  S
C643        C758   1.479       .  S
C644        C902   1.486       .  S
O645       Cu653   2.003       .  S
O645        C655   1.278       .  A
O646       Cu653   2.002       .  S
O646        C656   1.277       .  A
O647       Cu653   2.011       .  S
O647        C657   1.278       .  A
O648       Cu653   2.001       .  S
O648        C658   1.277       .  A
O649       Cu654   2.008       .  S
O649        C658   1.278       .  A
O650       Cu654   2.012       .  S
O650        C657   1.279       .  A
O651       Cu654   1.998       .  S
O651        C656   1.277       .  A
O652       Cu654   2.003       .  S
O652        C655   1.277       .  A
Cu653      Cu654   2.369       .  S
C655       C1334   1.482       .  S
C656        C677   1.480       .  S
C657        C701   1.487       .  S
C658       C1094   1.483       .  S
O659       Cu667   2.009       .  S
O659        C669   1.278       .  A
O660       Cu667   2.000       .  S
O660        C670   1.277       .  A
O661       Cu667   2.002       .  S
O661        C671   1.278       .  A
O662       Cu667   2.010       .  S
O662        C672   1.278       .  A
O663       Cu668   2.003       .  S
O663        C672   1.278       .  A
O664       Cu668   1.998       .  S
O664        C671   1.276       .  A
O665       Cu668   2.005       .  S
O665        C670   1.278       .  A
O666       Cu668   2.005       .  S
O666        C669   1.278       .  A
Cu667      Cu668   2.370       .  S
C669        C734   1.480       .  S
C670       C1526   1.483       .  S
C671        C686   1.474       .  S
C672       C1253   1.485       .  S
C673        C674   1.402       .  A
C673        C678   1.395       .  A
C673        H683   1.083       .  S
C674        C679   1.481       .  S
C674        C675   1.409       .  A
C675        C676   1.398       .  A
C675        O680   1.372       .  S
C676        C677   1.406       .  A
C676        H681   1.083       .  S
C677        C678   1.411       .  A
C678        O682   1.372       .  S
C679        C684   1.409       .  A
C679        C688   1.404       .  A
O680        H696   0.992       .  S
O682        H693   0.992       .  S
C684        C685   1.399       .  A
C684        O689   1.373       .  S
C685        C686   1.404       .  A
C685        H690   1.084       .  S
C686        C687   1.409       .  A
C687        C688   1.397       .  A
C687        O691   1.372       .  S
C688        H692   1.083       .  S
O689        H694   0.991       .  S
O691        H695   0.992       .  S
C697        C698   1.404       .  A
C697        C702   1.402       .  A
C697        H707   1.083       .  S
C698        C703   1.489       .  S
C698        C699   1.409       .  A
C699        C700   1.400       .  A
C699        O704   1.372       .  S
C700        C701   1.406       .  A
C700        H705   1.083       .  S
C701        C702   1.413       .  A
C702        O706   1.372       .  S
C703        C708   1.410       .  A
C703        C712   1.405       .  A
O704        H720   0.992       .  S
O706        H717   0.992       .  S
C708        C709   1.403       .  A
C708        O713   1.372       .  S
C709        C710   1.404       .  A
C709        H714   1.084       .  S
C710        C711   1.410       .  A
C711        C712   1.401       .  A
C711        O715   1.372       .  S
C712        H716   1.083       .  S
O713        H718   0.991       .  S
O715        H719   0.992       .  S
C721        C722   1.404       .  A
C721        C726   1.400       .  A
C721        H731   1.083       .  S
C722        C727   1.482       .  S
C722        C723   1.408       .  A
C723        C724   1.398       .  A
C723        O728   1.372       .  S
C724        C725   1.405       .  A
C724        H729   1.084       .  S
C725        C726   1.411       .  A
C726        O730   1.372       .  S
C727        C732   1.408       .  A
C727        C736   1.403       .  A
O728        H744   0.992       .  S
O730        H741   0.992       .  S
C732        C733   1.401       .  A
C732        O737   1.372       .  S
C733        C734   1.406       .  A
C733        H738   1.084       .  S
C734        C735   1.410       .  A
C735        C736   1.398       .  A
C735        O739   1.372       .  S
C736        H740   1.084       .  S
O737        H742   0.991       .  S
O739        H743   0.992       .  S
C745        C746   1.403       .  A
C745        C750   1.397       .  A
C745        H755   1.083       .  S
C746        C751   1.482       .  S
C746        C747   1.410       .  A
C747        C748   1.398       .  A
C747        O752   1.372       .  S
C748        C749   1.404       .  A
C748        H753   1.084       .  S
C749        C750   1.409       .  A
C750        O754   1.372       .  S
C751        C756   1.409       .  A
C751        C760   1.403       .  A
O752        H768   0.992       .  S
O754        H765   0.992       .  S
C756        C757   1.399       .  A
C756        O761   1.372       .  S
C757        C758   1.404       .  A
C757        H762   1.083       .  S
C758        C759   1.411       .  A
C759        C760   1.398       .  A
C759        O763   1.372       .  S
C760        H764   1.084       .  S
O761        H766   0.991       .  S
O763        H767   0.991       .  S
C769        C770   1.403       .  A
C769        C774   1.400       .  A
C769        H779   1.083       .  S
C770        C775   1.488       .  S
C770        C771   1.411       .  A
C771        C772   1.400       .  A
C771        O776   1.372       .  S
C772        C773   1.404       .  A
C772        H777   1.083       .  S
C773        C774   1.413       .  A
C774        O778   1.372       .  S
C775        C780   1.410       .  A
C775        C784   1.405       .  A
O776        H792   0.992       .  S
O778        H789   0.992       .  S
C780        C781   1.403       .  A
C780        O785   1.373       .  S
C781        C782   1.407       .  A
C781        H786   1.084       .  S
C782        C783   1.409       .  A
C783        C784   1.398       .  A
C783        O787   1.371       .  S
C784        H788   1.083       .  S
O785        H790   0.992       .  S
O787        H791   0.992       .  S
C793        C794   1.403       .  A
C793        C798   1.401       .  A
C793        H803   1.084       .  S
C794        C799   1.482       .  S
C794        C795   1.407       .  A
C795        C796   1.400       .  A
C795        O800   1.373       .  S
C796        C797   1.405       .  A
C796        H801   1.084       .  S
C797        C798   1.411       .  A
C798        O802   1.372       .  S
C799        C804   1.409       .  A
C799        C808   1.404       .  A
O800        H816   0.992       .  S
O802        H813   0.992       .  S
C804        C805   1.398       .  A
C804        O809   1.371       .  S
C805        C806   1.403       .  A
C805        H810   1.084       .  S
C806        C807   1.410       .  A
C807        C808   1.401       .  A
C807        O811   1.372       .  S
C808        H812   1.084       .  S
O809        H814   0.992       .  S
O811        H815   0.993       .  S
C817        C818   1.403       .  A
C817        C822   1.400       .  A
C817        H827   1.083       .  S
C818        C823   1.486       .  S
C818        C819   1.411       .  A
C819        C820   1.401       .  A
C819        O824   1.372       .  S
C820        C821   1.405       .  A
C820        H825   1.083       .  S
C821        C822   1.411       .  A
C822        O826   1.372       .  S
C823        C828   1.410       .  A
C823        C832   1.403       .  A
O824        H840   0.992       .  S
O826        H837   0.992       .  S
C828        C829   1.402       .  A
C828        O833   1.372       .  S
C829        C830   1.404       .  A
C829        H834   1.084       .  S
C830        C831   1.411       .  A
C831        C832   1.399       .  A
C831        O835   1.372       .  S
C832        H836   1.083       .  S
O833        H838   0.991       .  S
O835        H839   0.992       .  S
C841        C842   1.405       .  A
C841        C846   1.398       .  A
C841        H851   1.083       .  S
C842        C847   1.487       .  S
C842        C843   1.412       .  A
C843        C844   1.401       .  A
C843        O848   1.372       .  S
C844        C845   1.403       .  A
C844        H849   1.084       .  S
C845        C846   1.407       .  A
C846        O850   1.372       .  S
C847        C852   1.410       .  A
C847        C856   1.404       .  A
O848        H864   0.991       .  S
O850        H861   0.992       .  S
C852        C853   1.399       .  A
C852        O857   1.373       .  S
C853        C854   1.404       .  A
C853        H858   1.083       .  S
C854        C855   1.415       .  A
C855        C856   1.401       .  A
C855        O859   1.371       .  S
C856        H860   1.083       .  S
O857        H862   0.992       .  S
O859        H863   0.992       .  S
C865        C866   1.402       .  A
C865        C870   1.399       .  A
C865        H875   1.084       .  S
C866        C871   1.479       .  S
C866        C867   1.407       .  A
C867        C868   1.400       .  A
C867        O872   1.372       .  S
C868        C869   1.405       .  A
C868        H873   1.084       .  S
C869        C870   1.410       .  A
C870        O874   1.372       .  S
C871        C876   1.406       .  A
C871        C880   1.401       .  A
O872        H888   0.991       .  S
O874        H885   0.992       .  S
C876        C877   1.400       .  A
C876        O881   1.372       .  S
C877        C878   1.407       .  A
C877        H882   1.083       .  S
C878        C879   1.414       .  A
C879        C880   1.400       .  A
C879        O883   1.371       .  S
C880        H884   1.084       .  S
O881        H886   0.992       .  S
O883        H887   0.992       .  S
C889        C890   1.402       .  A
C889        C894   1.400       .  A
C889        H899   1.084       .  S
C890        C895   1.479       .  S
C890        C891   1.407       .  A
C891        C892   1.399       .  A
C891        O896   1.372       .  S
C892        C893   1.405       .  A
C892        H897   1.083       .  S
C893        C894   1.413       .  A
C894        O898   1.372       .  S
C895        C900   1.406       .  A
C895        C904   1.401       .  A
O896        H912   0.992       .  S
O898        H909   0.992       .  S
C900        C901   1.399       .  A
C900        O905   1.372       .  S
C901        C902   1.408       .  A
C901        H906   1.083       .  S
C902        C903   1.415       .  A
C903        C904   1.399       .  A
C903        O907   1.371       .  S
C904        H908   1.084       .  S
O905        H910   0.992       .  S
O907        H911   0.992       .  S
C913        C914   1.403       .  A
C913        C918   1.398       .  A
C913        H923   1.083       .  S
C914        C919   1.482   1_554  S
C914        C915   1.408       .  A
C915        C916   1.396       .  A
C915        O920   1.372       .  S
C916        C917   1.406       .  A
C916        H921   1.083       .  S
C917        C918   1.413       .  A
C918        O922   1.372       .  S
C919        C924   1.410       .  A
C919        C928   1.404       .  A
O920        H936   0.992       .  S
O922        H933   0.992       .  S
C924        C925   1.400       .  A
C924        O929   1.373       .  S
C925        C926   1.402       .  A
C925        H930   1.084       .  S
C926        C927   1.407       .  A
C927        C928   1.398       .  A
C927        O931   1.372       .  S
C928        H932   1.083       .  S
O929        H934   0.991       .  S
O931        H935   0.992       .  S
C937        C938   1.397       .  A
C937        C942   1.396       .  A
C937        H947   1.084       .  S
C938        C943   1.466       .  S
C938        C939   1.403       .  A
C939        C940   1.397       .  A
C939        O944   1.372       .  S
C940        C941   1.407       .  A
C940        H945   1.083       .  S
C941        C942   1.415       .  A
C942        O946   1.372       .  S
C943        C948   1.403       .  A
C943        C952   1.397       .  A
O944        H960   0.991       .  S
O946        H957   0.992       .  S
C948        C949   1.398       .  A
C948        O953   1.372       .  S
C949        C950   1.407       .  A
C949        H954   1.083       .  S
C950        C951   1.415       .  A
C951        C952   1.396       .  A
C951        O955   1.372       .  S
C952        H956   1.084       .  S
O953        H958   0.992       .  S
O955        H959   0.992       .  S
C961        C962   1.404       .  A
C961        C966   1.397       .  A
C961        H971   1.083       .  S
C962        C967   1.486   1_455  S
C962        C963   1.409       .  A
C963        C964   1.399       .  A
C963        O968   1.372       .  S
C964        C965   1.407       .  A
C964        H969   1.083       .  S
C965        C966   1.412       .  A
C966        O970   1.372       .  S
C967        C972   1.410       .  A
C967        C976   1.406       .  A
O968        H984   0.992       .  S
O970        H981   0.992       .  S
C972        C973   1.399       .  A
C972        O977   1.373       .  S
C973        C974   1.402       .  A
C973        H978   1.084       .  S
C974        C975   1.409       .  A
C975        C976   1.400       .  A
C975        O979   1.372       .  S
C976        H980   1.083       .  S
O977        H982   0.991       .  S
O979        H983   0.992       .  S
C985        C986   1.402       .  A
C985        C990   1.400       .  A
C985        H995   1.084       .  S
C986        C991   1.479       .  S
C986        C987   1.405       .  A
C987        C988   1.397       .  A
C987        O992   1.372       .  S
C988        C989   1.408       .  A
C988        H993   1.083       .  S
C989        C990   1.414       .  A
C990        O994   1.371       .  S
C991        C996   1.406       .  A
C991       C1000   1.403       .  A
O992       H1008   0.992       .  S
O994       H1005   0.992       .  S
C996        C997   1.399       .  A
C996       O1001   1.372       .  S
C997        C998   1.406       .  A
C997       H1002   1.084       .  S
C998        C999   1.410       .  A
C999       C1000   1.400       .  A
C999       O1003   1.372       .  S
C1000      H1004   1.084       .  S
O1001      H1006   0.992       .  S
O1003      H1007   0.992       .  S
C1009      C1010   1.400       .  A
C1009      C1014   1.399       .  A
C1009      H1019   1.084       .  S
C1010      C1015   1.477   1_655  S
C1010      C1011   1.406       .  A
C1011      C1012   1.401       .  A
C1011      O1016   1.372       .  S
C1012      C1013   1.407       .  A
C1012      H1017   1.083       .  S
C1013      C1014   1.414       .  A
C1014      O1018   1.371       .  S
C1015      C1020   1.409       .  A
C1015      C1024   1.402       .  A
O1016      H1032   0.992       .  S
O1018      H1029   0.992       .  S
C1020      C1021   1.399       .  A
C1020      O1025   1.371       .  S
C1021      C1022   1.402       .  A
C1021      H1026   1.084       .  S
C1022      C1023   1.408       .  A
C1023      C1024   1.398       .  A
C1023      O1027   1.372       .  S
C1024      H1028   1.084       .  S
O1025      H1030   0.992       .  S
O1027      H1031   0.993       .  S
C1033      C1034   1.405       .  A
C1033      C1038   1.399       .  A
C1033      H1043   1.084       .  S
C1034      C1039   1.485   1_556  S
C1034      C1035   1.410       .  A
C1035      C1036   1.402       .  A
C1035      O1040   1.373       .  S
C1036      C1037   1.403       .  A
C1036      H1041   1.084       .  S
C1037      C1038   1.409       .  A
C1038      O1042   1.372       .  S
C1039      C1044   1.409       .  A
C1039      C1048   1.403       .  A
O1040      H1056   0.992       .  S
O1042      H1053   0.992       .  S
C1044      C1045   1.400       .  A
C1044      O1049   1.372       .  S
C1045      C1046   1.407       .  A
C1045      H1050   1.083       .  S
C1046      C1047   1.412       .  A
C1047      C1048   1.400       .  A
C1047      O1051   1.371       .  S
C1048      H1052   1.084       .  S
O1049      H1054   0.992       .  S
O1051      H1055   0.992       .  S
C1057      C1058   1.402       .  A
C1057      C1062   1.401       .  A
C1057      H1067   1.084       .  S
C1058      C1063   1.476       .  S
C1058      C1059   1.404       .  A
C1059      C1060   1.399       .  A
C1059      O1064   1.372       .  S
C1060      C1061   1.407       .  A
C1060      H1065   1.083       .  S
C1061      C1062   1.414       .  A
C1062      O1066   1.372       .  S
C1063      C1068   1.406       .  A
C1063      C1072   1.398       .  A
O1064      H1080   0.991       .  S
O1066      H1077   0.992       .  S
C1068      C1069   1.401       .  A
C1068      O1073   1.371       .  S
C1069      C1070   1.408       .  A
C1069      H1074   1.083       .  S
C1070      C1071   1.416       .  A
C1071      C1072   1.398       .  A
C1071      O1075   1.371       .  S
C1072      H1076   1.084       .  S
O1073      H1078   0.991       .  S
O1075      H1079   0.992       .  S
C1081      C1082   1.399       .  A
C1081      C1086   1.399       .  A
C1081      H1091   1.084       .  S
C1082      C1087   1.469       .  S
C1082      C1083   1.402       .  A
C1083      C1084   1.397       .  A
C1083      O1088   1.371       .  S
C1084      C1085   1.408       .  A
C1084      H1089   1.083       .  S
C1085      C1086   1.414       .  A
C1086      O1090   1.372       .  S
C1087      C1092   1.403       .  A
C1087      C1096   1.398       .  A
O1088      H1104   0.991       .  S
O1090      H1101   0.992       .  S
C1092      C1093   1.399       .  A
C1092      O1097   1.372       .  S
C1093      C1094   1.408       .  A
C1093      H1098   1.083       .  S
C1094      C1095   1.414       .  A
C1095      C1096   1.397       .  A
C1095      O1099   1.371       .  S
C1096      H1100   1.084       .  S
O1097      H1102   0.992       .  S
O1099      H1103   0.992       .  S
C1105      C1106   1.405       .  A
C1105      C1110   1.400       .  A
C1105      H1115   1.083       .  S
C1106      C1111   1.487   1_556  S
C1106      C1107   1.409       .  A
C1107      C1108   1.398       .  A
C1107      O1112   1.371       .  S
C1108      C1109   1.405       .  A
C1108      H1113   1.083       .  S
C1109      C1110   1.411       .  A
C1110      O1114   1.372       .  S
C1111      C1116   1.409       .  A
C1111      C1120   1.406       .  A
O1112      H1128   0.992       .  S
O1114      H1125   0.992       .  S
C1116      C1117   1.398       .  A
C1116      O1121   1.373       .  S
C1117      C1118   1.405       .  A
C1117      H1122   1.084       .  S
C1118      C1119   1.411       .  A
C1119      C1120   1.401       .  A
C1119      O1123   1.372       .  S
C1120      H1124   1.083       .  S
O1121      H1126   0.991       .  S
O1123      H1127   0.992       .  S
C1129      C1130   1.402       .  A
C1129      C1134   1.397       .  A
C1129      H1139   1.084       .  S
C1130      C1135   1.479       .  S
C1130      C1131   1.406       .  A
C1131      C1132   1.400       .  A
C1131      O1136   1.372       .  S
C1132      C1133   1.408       .  A
C1132      H1137   1.083       .  S
C1133      C1134   1.413       .  A
C1134      O1138   1.372       .  S
C1135      C1140   1.406       .  A
C1135      C1144   1.404       .  A
O1136      H1152   0.992       .  S
O1138      H1149   0.991       .  S
C1140      C1141   1.394       .  A
C1140      O1145   1.372       .  S
C1141      C1142   1.405       .  A
C1141      H1146   1.083       .  S
C1142      C1143   1.412       .  A
C1143      C1144   1.403       .  A
C1143      O1147   1.372       .  S
C1144      H1148   1.084       .  S
O1145      H1150   0.992       .  S
O1147      H1151   0.991       .  S
C1153      C1154   1.403       .  A
C1153      C1158   1.398       .  A
C1153      H1163   1.084       .  S
C1154      C1159   1.479   1_545  S
C1154      C1155   1.407       .  A
C1155      C1156   1.399       .  A
C1155      O1160   1.372       .  S
C1156      C1157   1.404       .  A
C1156      H1161   1.084       .  S
C1157      C1158   1.409       .  A
C1158      O1162   1.372       .  S
C1159      C1164   1.407       .  A
C1159      C1168   1.402       .  A
O1160      H1176   0.992       .  S
O1162      H1173   0.992       .  S
C1164      C1165   1.399       .  A
C1164      O1169   1.372       .  S
C1165      C1166   1.405       .  A
C1165      H1170   1.083       .  S
C1166      C1167   1.413       .  A
C1167      C1168   1.399       .  A
C1167      O1171   1.372       .  S
C1168      H1172   1.084       .  S
O1169      H1174   0.991       .  S
O1171      H1175   0.992       .  S
C1177      C1178   1.398       .  A
C1177      C1182   1.397       .  A
C1177      H1187   1.084       .  S
C1178      C1183   1.475       .  S
C1178      C1179   1.406       .  A
C1179      C1180   1.403       .  A
C1179      O1184   1.371       .  S
C1180      C1181   1.407       .  A
C1180      H1185   1.083       .  S
C1181      C1182   1.415       .  A
C1182      O1186   1.372       .  S
C1183      C1188   1.406       .  A
C1183      C1192   1.400       .  A
O1184      H1200   0.992       .  S
O1186      H1197   0.992       .  S
C1188      C1189   1.400       .  A
C1188      O1193   1.372       .  S
C1189      C1190   1.405       .  A
C1189      H1194   1.084       .  S
C1190      C1191   1.411       .  A
C1191      C1192   1.399       .  A
C1191      O1195   1.372       .  S
C1192      H1196   1.084       .  S
O1193      H1198   0.991       .  S
O1195      H1199   0.992       .  S
C1201      C1202   1.403       .  A
C1201      C1206   1.397       .  A
C1201      H1211   1.083       .  S
C1202      C1207   1.486   1_565  S
C1202      C1203   1.411       .  A
C1203      C1204   1.402       .  A
C1203      O1208   1.372       .  S
C1204      C1205   1.405       .  A
C1204      H1209   1.083       .  S
C1205      C1206   1.411       .  A
C1206      O1210   1.372       .  S
C1207      C1212   1.411       .  A
C1207      C1216   1.403       .  A
O1208      H1224   0.992       .  S
O1210      H1221   0.992       .  S
C1212      C1213   1.401       .  A
C1212      O1217   1.372       .  S
C1213      C1214   1.403       .  A
C1213      H1218   1.084       .  S
C1214      C1215   1.412       .  A
C1215      C1216   1.400       .  A
C1215      O1219   1.372       .  S
C1216      H1220   1.083       .  S
O1217      H1222   0.991       .  S
O1219      H1223   0.992       .  S
C1225      C1226   1.405       .  A
C1225      C1230   1.401       .  A
C1225      H1235   1.083       .  S
C1226      C1231   1.483   1_554  S
C1226      C1227   1.408       .  A
C1227      C1228   1.398       .  A
C1227      O1232   1.372       .  S
C1228      C1229   1.405       .  A
C1228      H1233   1.084       .  S
C1229      C1230   1.410       .  A
C1230      O1234   1.372       .  S
C1231      C1236   1.407       .  A
C1231      C1240   1.404       .  A
O1232      H1248   0.992       .  S
O1234      H1245   0.992       .  S
C1236      C1237   1.399       .  A
C1236      O1241   1.372       .  S
C1237      C1238   1.406       .  A
C1237      H1242   1.083       .  S
C1238      C1239   1.411       .  A
C1239      C1240   1.401       .  A
C1239      O1243   1.371       .  S
C1240      H1244   1.084       .  S
O1241      H1246   0.991       .  S
O1243      H1247   0.992       .  S
C1249      C1250   1.402       .  A
C1249      C1254   1.400       .  A
C1249      H1259   1.084       .  S
C1250      C1255   1.480       .  S
C1250      C1251   1.406       .  A
C1251      C1252   1.399       .  A
C1251      O1256   1.372       .  S
C1252      C1253   1.408       .  A
C1252      H1257   1.083       .  S
C1253      C1254   1.413       .  A
C1254      O1258   1.371       .  S
C1255      C1260   1.407       .  A
C1255      C1264   1.402       .  A
O1256      H1272   0.992       .  S
O1258      H1269   0.992       .  S
C1260      C1261   1.400       .  A
C1260      O1265   1.372       .  S
C1261      C1262   1.406       .  A
C1261      H1266   1.083       .  S
C1262      C1263   1.413       .  A
C1263      C1264   1.400       .  A
C1263      O1267   1.371       .  S
C1264      H1268   1.084       .  S
O1265      H1270   0.992       .  S
O1267      H1271   0.992       .  S
C1273      C1274   1.401       .  A
C1273      C1278   1.398       .  A
C1273      H1283   1.084       .  S
C1274      C1279   1.473       .  S
C1274      C1275   1.404       .  A
C1275      C1276   1.397       .  A
C1275      O1280   1.372       .  S
C1276      C1277   1.405       .  A
C1276      H1281   1.084       .  S
C1277      C1278   1.411       .  A
C1278      O1282   1.372       .  S
C1279      C1284   1.405       .  A
C1279      C1288   1.399       .  A
O1280      H1296   0.992       .  S
O1282      H1293   0.992       .  S
C1284      C1285   1.399       .  A
C1284      O1289   1.372       .  S
C1285      C1286   1.407       .  A
C1285      H1290   1.083       .  S
C1286      C1287   1.416       .  A
C1287      C1288   1.398       .  A
C1287      O1291   1.371       .  S
C1288      H1292   1.084       .  S
O1289      H1294   0.991       .  S
O1291      H1295   0.992       .  S
C1297      C1298   1.401       .  A
C1297      C1302   1.398       .  A
C1297      H1307   1.084       .  S
C1298      C1303   1.473   1_556  S
C1298      C1299   1.406       .  A
C1299      C1300   1.397       .  A
C1299      O1304   1.372       .  S
C1300      C1301   1.404       .  A
C1300      H1305   1.084       .  S
C1301      C1302   1.410       .  A
C1302      O1306   1.372       .  S
C1303      C1308   1.405       .  A
C1303      C1312   1.401       .  A
O1304      H1320   0.992       .  S
O1306      H1317   0.992       .  S
C1308      C1309   1.398       .  A
C1308      O1313   1.372       .  S
C1309      C1310   1.405       .  A
C1309      H1314   1.084       .  S
C1310      C1311   1.410       .  A
C1311      C1312   1.397       .  A
C1311      O1315   1.372       .  S
C1312      H1316   1.084       .  S
O1313      H1318   0.991       .  S
O1315      H1319   0.992       .  S
C1321      C1322   1.400       .  A
C1321      C1326   1.400       .  A
C1321      H1331   1.084       .  S
C1322      C1327   1.474       .  S
C1322      C1323   1.404       .  A
C1323      C1324   1.398       .  A
C1323      O1328   1.372       .  S
C1324      C1325   1.409       .  A
C1324      H1329   1.083       .  S
C1325      C1326   1.414       .  A
C1326      O1330   1.371       .  S
C1327      C1332   1.405       .  A
C1327      C1336   1.400       .  A
O1328      H1344   0.992       .  S
O1330      H1341   0.992       .  S
C1332      C1333   1.400       .  A
C1332      O1337   1.372       .  S
C1333      C1334   1.408       .  A
C1333      H1338   1.083       .  S
C1334      C1335   1.413       .  A
C1335      C1336   1.396       .  A
C1335      O1339   1.371       .  S
C1336      H1340   1.084       .  S
O1337      H1342   0.991       .  S
O1339      H1343   0.992       .  S
C1345      C1346   1.402       .  A
C1345      C1350   1.398       .  A
C1345      H1355   1.084       .  S
C1346      C1351   1.483   1_655  S
C1346      C1347   1.409       .  A
C1347      C1348   1.401       .  A
C1347      O1352   1.373       .  S
C1348      C1349   1.403       .  A
C1348      H1353   1.084       .  S
C1349      C1350   1.412       .  A
C1350      O1354   1.372       .  S
C1351      C1356   1.408       .  A
C1351      C1360   1.404       .  A
O1352      H1368   0.992       .  S
O1354      H1365   0.992       .  S
C1356      C1357   1.398       .  A
C1356      O1361   1.371       .  S
C1357      C1358   1.405       .  A
C1357      H1362   1.084       .  S
C1358      C1359   1.411       .  A
C1359      C1360   1.400       .  A
C1359      O1363   1.372       .  S
C1360      H1364   1.084       .  S
O1361      H1366   0.992       .  S
O1363      H1367   0.992       .  S
C1369      C1370   1.400       .  A
C1369      C1374   1.397       .  A
C1369      H1379   1.084       .  S
C1370      C1375   1.480       .  S
C1370      C1371   1.408       .  A
C1371      C1372   1.400       .  A
C1371      O1376   1.372       .  S
C1372      C1373   1.407       .  A
C1372      H1377   1.083       .  S
C1373      C1374   1.415       .  A
C1374      O1378   1.372       .  S
C1375      C1380   1.408       .  A
C1375      C1384   1.403       .  A
O1376      H1392   0.992       .  S
O1378      H1389   0.992       .  S
C1380      C1381   1.400       .  A
C1380      O1385   1.372       .  S
C1381      C1382   1.403       .  A
C1381      H1386   1.084       .  S
C1382      C1383   1.410       .  A
C1383      C1384   1.400       .  A
C1383      O1387   1.372       .  S
C1384      H1388   1.084       .  S
O1385      H1390   0.992       .  S
O1387      H1391   0.992       .  S
C1393      C1394   1.403       .  A
C1393      C1398   1.398       .  A
C1393      H1403   1.084       .  S
C1394      C1399   1.478   1_455  S
C1394      C1395   1.406       .  A
C1395      C1396   1.399       .  A
C1395      O1400   1.373       .  S
C1396      C1397   1.405       .  A
C1396      H1401   1.083       .  S
C1397      C1398   1.411       .  A
C1398      O1402   1.372       .  S
C1399      C1404   1.409       .  A
C1399      C1408   1.402       .  A
O1400      H1416   0.992       .  S
O1402      H1413   0.992       .  S
C1404      C1405   1.399       .  A
C1404      O1409   1.371       .  S
C1405      C1406   1.403       .  A
C1405      H1410   1.084       .  S
C1406      C1407   1.411       .  A
C1407      C1408   1.397       .  A
C1407      O1411   1.372       .  S
C1408      H1412   1.084       .  S
O1409      H1414   0.992       .  S
O1411      H1415   0.992       .  S
C1417      C1418   1.404       .  A
C1417      C1422   1.401       .  A
C1417      H1427   1.083       .  S
C1418      C1423   1.487   1_556  S
C1418      C1419   1.411       .  A
C1419      C1420   1.399       .  A
C1419      O1424   1.372       .  S
C1420      C1421   1.402       .  A
C1420      H1425   1.084       .  S
C1421      C1422   1.411       .  A
C1422      O1426   1.372       .  S
C1423      C1428   1.409       .  A
C1423      C1432   1.404       .  A
O1424      H1440   0.992       .  S
O1426      H1437   0.992       .  S
C1428      C1429   1.402       .  A
C1428      O1433   1.372       .  S
C1429      C1430   1.407       .  A
C1429      H1434   1.083       .  S
C1430      C1431   1.411       .  A
C1431      C1432   1.399       .  A
C1431      O1435   1.371       .  S
C1432      H1436   1.083       .  S
O1433      H1438   0.992       .  S
O1435      H1439   0.992       .  S
C1441      C1442   1.401       .  A
C1441      C1446   1.403       .  A
C1441      H1451   1.084       .  S
C1442      C1447   1.479       .  S
C1442      C1443   1.404       .  A
C1443      C1444   1.400       .  A
C1443      O1448   1.372       .  S
C1444      C1445   1.408       .  A
C1444      H1449   1.083       .  S
C1445      C1446   1.417       .  A
C1446      O1450   1.371       .  S
C1447      C1452   1.404       .  A
C1447      C1456   1.403       .  A
O1448      H1464   0.992       .  S
O1450      H1461   0.991       .  S
C1452      C1453   1.399       .  A
C1452      O1457   1.371       .  S
C1453      C1454   1.407       .  A
C1453      H1458   1.083       .  S
C1454      C1455   1.413       .  A
C1455      C1456   1.405       .  A
C1455      O1459   1.371       .  S
C1456      H1460   1.084       .  S
O1457      H1462   0.991       .  S
O1459      H1463   0.992       .  S
C1465      C1466   1.402       .  A
C1465      C1470   1.401       .  A
C1465      H1475   1.084       .  S
C1466      C1471   1.480       .  S
C1466      C1467   1.405       .  A
C1467      C1468   1.400       .  A
C1467      O1472   1.372       .  S
C1468      C1469   1.409       .  A
C1468      H1473   1.083       .  S
C1469      C1470   1.413       .  A
C1470      O1474   1.371       .  S
C1471      C1476   1.406       .  A
C1471      C1480   1.403       .  A
O1472      H1488   0.991       .  S
O1474      H1485   0.993       .  S
C1476      C1477   1.400       .  A
C1476      O1481   1.372       .  S
C1477      C1478   1.405       .  A
C1477      H1482   1.084       .  S
C1478      C1479   1.409       .  A
C1479      C1480   1.401       .  A
C1479      O1483   1.372       .  S
C1480      H1484   1.084       .  S
O1481      H1486   0.992       .  S
O1483      H1487   0.992       .  S
C1489      C1490   1.404       .  A
C1489      C1494   1.400       .  A
C1489      H1499   1.083       .  S
C1490      C1495   1.485   1_556  S
C1490      C1491   1.408       .  A
C1491      C1492   1.401       .  A
C1491      O1496   1.372       .  S
C1492      C1493   1.407       .  A
C1492      H1497   1.083       .  S
C1493      C1494   1.411       .  A
C1494      O1498   1.371       .  S
C1495      C1500   1.408       .  A
C1495      C1504   1.405       .  A
O1496      H1512   0.992       .  S
O1498      H1509   0.992       .  S
C1500      C1501   1.400       .  A
C1500      O1505   1.372       .  S
C1501      C1502   1.404       .  A
C1501      H1506   1.084       .  S
C1502      C1503   1.410       .  A
C1503      C1504   1.402       .  A
C1503      O1507   1.371       .  S
C1504      H1508   1.083       .  S
O1505      H1510   0.991       .  S
O1507      H1511   0.991       .  S
C1513      C1514   1.398       .  A
C1513      C1518   1.399       .  A
C1513      H1523   1.084       .  S
C1514      C1519   1.471       .  S
C1514      C1515   1.403       .  A
C1515      C1516   1.399       .  A
C1515      O1520   1.372       .  S
C1516      C1517   1.408       .  A
C1516      H1521   1.083       .  S
C1517      C1518   1.416       .  A
C1518      O1522   1.372       .  S
C1519      C1524   1.403       .  A
C1519      C1528   1.399       .  A
O1520      H1536   0.991       .  S
O1522      H1533   0.992       .  S
C1524      C1525   1.398       .  A
C1524      O1529   1.371       .  S
C1525      C1526   1.408       .  A
C1525      H1530   1.083       .  S
C1526      C1527   1.415       .  A
C1527      C1528   1.399       .  A
C1527      O1531   1.372       .  S
C1528      H1532   1.084       .  S
O1529      H1534   0.991       .  S
O1531      H1535   0.992       .  S
C1537      C1538   1.402       .  A
C1537      C1542   1.400       .  A
C1537      H1547   1.084       .  S
C1538      C1543   1.480   1_545  S
C1538      C1539   1.408       .  A
C1539      C1540   1.401       .  A
C1539      O1544   1.372       .  S
C1540      C1541   1.403       .  A
C1540      H1545   1.084       .  S
C1541      C1542   1.409       .  A
C1542      O1546   1.371       .  S
C1543      C1548   1.407       .  A
C1543      C1552   1.402       .  A
O1544      H1560   0.992       .  S
O1546      H1557   0.992       .  S
C1548      C1549   1.399       .  A
C1548      O1553   1.371       .  S
C1549      C1550   1.406       .  A
C1549      H1554   1.083       .  S
C1550      C1551   1.414       .  A
C1551      C1552   1.401       .  A
C1551      O1555   1.372       .  S
C1552      H1556   1.084       .  S
O1553      H1558   0.992       .  S
O1555      H1559   0.992       .  S
C1561      C1562   1.404       .  A
C1561      C1566   1.404       .  A
C1561      H1571   1.084       .  S
C1562      C1567   1.479       .  S
C1562      C1563   1.405       .  A
C1563      C1564   1.395       .  A
C1563      O1568   1.372       .  S
C1564      C1565   1.405       .  A
C1564      H1569   1.083       .  S
C1565      C1566   1.413       .  A
C1566      O1570   1.371       .  S
C1567      C1572   1.406       .  A
C1567      C1576   1.400       .  A
O1568      H1584   0.992       .  S
O1570      H1581   0.992       .  S
C1572      C1573   1.403       .  A
C1572      O1577   1.372       .  S
C1573      C1574   1.410       .  A
C1573      H1578   1.083       .  S
C1574      C1575   1.414       .  A
C1575      C1576   1.397       .  A
C1575      O1579   1.371       .  S
C1576      H1580   1.084       .  S
O1577      H1582   0.991       .  S
O1579      H1583   0.993       .  S
C1585      C1586   1.402       .  A
C1585      C1590   1.398       .  A
C1585      H1595   1.084       .  S
C1586      C1591   1.480   1_545  S
C1586      C1587   1.407       .  A
C1587      C1588   1.400       .  A
C1587      O1592   1.372       .  S
C1588      C1589   1.406       .  A
C1588      H1593   1.083       .  S
C1589      C1590   1.411       .  A
C1590      O1594   1.372       .  S
C1591      C1596   1.408       .  A
C1591      C1600   1.403       .  A
O1592      H1608   0.992       .  S
O1594      H1605   0.992       .  S
C1596      C1597   1.400       .  A
C1596      O1601   1.372       .  S
C1597      C1598   1.404       .  A
C1597      H1602   1.084       .  S
C1598      C1599   1.411       .  A
C1599      C1600   1.400       .  A
C1599      O1603   1.372       .  S
C1600      H1604   1.084       .  S
O1601      H1606   0.991       .  S
O1603      H1607   0.992       .  S
C1609      C1610   1.403       .  A
C1609      C1614   1.397       .  A
C1609      H1619   1.083       .  S
C1610      C1615   1.487   1_556  S
C1610      C1611   1.411       .  A
C1611      C1612   1.404       .  A
C1611      O1616   1.372       .  S
C1612      C1613   1.406       .  A
C1612      H1617   1.083       .  S
C1613      C1614   1.410       .  A
C1614      O1618   1.371       .  S
C1615      C1620   1.410       .  A
C1615      C1624   1.404       .  A
O1616      H1632   0.992       .  S
O1618      H1629   0.992       .  S
C1620      C1621   1.400       .  A
C1620      O1625   1.373       .  S
C1621      C1622   1.404       .  A
C1621      H1626   1.083       .  S
C1622      C1623   1.413       .  A
C1623      C1624   1.402       .  A
C1623      O1627   1.372       .  S
C1624      H1628   1.083       .  S
O1625      H1630   0.991       .  S
O1627      H1631   0.992       .  S
C1633      C1634   1.402       .  A
C1633      C1638   1.399       .  A
C1633      H1643   1.084       .  S
C1634      C1639   1.478   1_565  S
C1634      C1635   1.406       .  A
C1635      C1636   1.400       .  A
C1635      O1640   1.373       .  S
C1636      C1637   1.406       .  A
C1636      H1641   1.083       .  S
C1637      C1638   1.412       .  A
C1638      O1642   1.372       .  S
C1639      C1644   1.409       .  A
C1639      C1648   1.402       .  A
O1640      H1656   0.992       .  S
O1642      H1653   0.992       .  S
C1644      C1645   1.398       .  A
C1644      O1649   1.371       .  S
C1645      C1646   1.403       .  A
C1645      H1650   1.084       .  S
C1646      C1647   1.410       .  A
C1647      C1648   1.398       .  A
C1647      O1651   1.372       .  S
C1648      H1652   1.084       .  S
O1649      H1654   0.992       .  S
O1651      H1655   0.992       .  S
C1657      C1658   1.402       .  A
C1657      C1662   1.396       .  A
C1657      H1667   1.083       .  S
C1658      C1663   1.480   1_655  S
C1658      C1659   1.407       .  A
C1659      C1660   1.399       .  A
C1659      O1664   1.372       .  S
C1660      C1661   1.407       .  A
C1660      H1665   1.083       .  S
C1661      C1662   1.412       .  A
C1662      O1666   1.372       .  S
C1663      C1668   1.408       .  A
C1663      C1672   1.404       .  A
O1664      H1680   0.992       .  S
O1666      H1677   0.992       .  S
C1668      C1669   1.398       .  A
C1668      O1673   1.373       .  S
C1669      C1670   1.402       .  A
C1669      H1674   1.084       .  S
C1670      C1671   1.409       .  A
C1671      C1672   1.400       .  A
C1671      O1675   1.372       .  S
C1672      H1676   1.084       .  S
O1673      H1678   0.991       .  S
O1675      H1679   0.992       .  S
C1681      C1682   1.400       .  A
C1681      C1686   1.396       .  A
C1681      H1691   1.083       .  S
C1682      C1687   1.480   1_655  S
C1682      C1683   1.408       .  A
C1683      C1684   1.400       .  A
C1683      O1688   1.372       .  S
C1684      C1685   1.407       .  A
C1684      H1689   1.083       .  S
C1685      C1686   1.414       .  A
C1686      O1690   1.372       .  S
C1687      C1692   1.409       .  A
C1687      C1696   1.404       .  A
O1688      H1704   0.992       .  S
O1690      H1701   0.992       .  S
C1692      C1693   1.399       .  A
C1692      O1697   1.373       .  S
C1693      C1694   1.402       .  A
C1693      H1698   1.084       .  S
C1694      C1695   1.407       .  A
C1695      C1696   1.398       .  A
C1695      O1699   1.372       .  S
C1696      H1700   1.084       .  S
O1697      H1702   0.991       .  S
O1699      H1703   0.992       .  S
C1705      C1706   1.403       .  A
C1705      C1710   1.399       .  A
C1705      H1715   1.083       .  S
C1706      C1711   1.484   1_545  S
C1706      C1707   1.409       .  A
C1707      C1708   1.398       .  A
C1707      O1712   1.372       .  S
C1708      C1709   1.404       .  A
C1708      H1713   1.084       .  S
C1709      C1710   1.412       .  A
C1710      O1714   1.372       .  S
C1711      C1716   1.409       .  A
C1711      C1720   1.403       .  A
O1712      H1728   0.992       .  S
O1714      H1725   0.992       .  S
C1716      C1717   1.401       .  A
C1716      O1721   1.372       .  S
C1717      C1718   1.405       .  A
C1717      H1722   1.083       .  S
C1718      C1719   1.411       .  A
C1719      C1720   1.399       .  A
C1719      O1723   1.372       .  S
C1720      H1724   1.084       .  S
O1721      H1726   0.991       .  S
O1723      H1727   0.992       .  S
C1729      C1730   1.401       .  A
C1729      C1734   1.398       .  A
C1729      H1739   1.083       .  S
C1730      C1735   1.480       .  S
C1730      C1731   1.407       .  A
C1731      C1732   1.400       .  A
C1731      O1736   1.372       .  S
C1732      C1733   1.407       .  A
C1732      H1737   1.083       .  S
C1733      C1734   1.413       .  A
C1734      O1738   1.371       .  S
C1735      C1740   1.406       .  A
C1735      C1744   1.402       .  A
O1736      H1752   0.992       .  S
O1738      H1749   0.992       .  S
C1740      C1741   1.399       .  A
C1740      O1745   1.372       .  S
C1741      C1742   1.406       .  A
C1741      H1746   1.083       .  S
C1742      C1743   1.414       .  A
C1743      C1744   1.401       .  A
C1743      O1747   1.372       .  S
C1744      H1748   1.084       .  S
O1745      H1750   0.991       .  S
O1747      H1751   0.992       .  S
C1753      C1754   1.400       .  A
C1753      C1758   1.400       .  A
C1753      H1763   1.084       .  S
C1754      C1759   1.472       .  S
C1754      C1755   1.404       .  A
C1755      C1756   1.397       .  A
C1755      O1760   1.372       .  S
C1756      C1757   1.407       .  A
C1756      H1761   1.083       .  S
C1757      C1758   1.415       .  A
C1758      O1762   1.371       .  S
C1759      C1764   1.404       .  A
C1759      C1768   1.401       .  A
O1760      H1776   0.992       .  S
O1762      H1773   0.992       .  S
C1764      C1765   1.399       .  A
C1764      O1769   1.372       .  S
C1765      C1766   1.406       .  A
C1765      H1770   1.084       .  S
C1766      C1767   1.411       .  A
C1767      C1768   1.398       .  A
C1767      O1771   1.372       .  S
C1768      H1772   1.084       .  S
O1769      H1774   0.991       .  S
O1771      H1775   0.992       .  S
C1777      C1778   1.400       .  A
C1777      C1782   1.402       .  A
C1777      H1787   1.084       .  S
C1778      C1783   1.472       .  S
C1778      C1779   1.402       .  A
C1779      C1780   1.397       .  A
C1779      O1784   1.372       .  S
C1780      C1781   1.408       .  A
C1780      H1785   1.083       .  S
C1781      C1782   1.413       .  A
C1782      O1786   1.371       .  S
C1783      C1788   1.403       .  A
C1783      C1792   1.400       .  A
O1784      H1800   0.991       .  S
O1786      H1797   0.992       .  S
C1788      C1789   1.397       .  A
C1788      O1793   1.372       .  S
C1789      C1790   1.408       .  A
C1789      H1794   1.083       .  S
C1790      C1791   1.412       .  A
C1791      C1792   1.401       .  A
C1791      O1795   1.371       .  S
C1792      H1796   1.084       .  S
O1793      H1798   0.991       .  S
O1795      H1799   0.992       .  S
C1801      C1802   1.401       .  A
C1801      C1806   1.397       .  A
C1801      H1811   1.084       .  S
C1802      C1807   1.481       .  S
C1802      C1803   1.409       .  A
C1803      C1804   1.404       .  A
C1803      O1808   1.372       .  S
C1804      C1805   1.406       .  A
C1804      H1809   1.083       .  S
C1805      C1806   1.411       .  A
C1806      O1810   1.372       .  S
C1807      C1812   1.408       .  A
C1807      C1816   1.403       .  A
O1808      H1824   0.992       .  S
O1810      H1821   0.992       .  S
C1812      C1813   1.400       .  A
C1812      O1817   1.371       .  S
C1813      C1814   1.405       .  A
C1813      H1818   1.084       .  S
C1814      C1815   1.410       .  A
C1815      C1816   1.399       .  A
C1815      O1819   1.372       .  S
C1816      H1820   1.084       .  S
O1817      H1822   0.992       .  S
O1819      H1823   0.992       .  S
C1825      C1826   1.400       .  A
C1825      C1830   1.397       .  A
C1825      H1835   1.084       .  S
C1826      C1831   1.477       .  S
C1826      C1827   1.406       .  A
C1827      C1828   1.402       .  A
C1827      O1832   1.372       .  S
C1828      C1829   1.408       .  A
C1828      H1833   1.083       .  S
C1829      C1830   1.412       .  A
C1830      O1834   1.371       .  S
C1831      C1836   1.406       .  A
C1831      C1840   1.401       .  A
O1832      H1848   0.992       .  S
O1834      H1845   0.992       .  S
C1836      C1837   1.399       .  A
C1836      O1841   1.371       .  S
C1837      C1838   1.407       .  A
C1837      H1842   1.083       .  S
C1838      C1839   1.414       .  A
C1839      C1840   1.397       .  A
C1839      O1843   1.372       .  S
C1840      H1844   1.084       .  S
O1841      H1846   0.991       .  S
O1843      H1847   0.992       .  S
C1849      C1850   1.401       .  A
C1849      C1854   1.400       .  A
C1849      H1859   1.084       .  S
C1850      C1855   1.478       .  S
C1850      C1851   1.405       .  A
C1851      C1852   1.399       .  A
C1851      O1856   1.372       .  S
C1852      C1853   1.408       .  A
C1852      H1857   1.083       .  S
C1853      C1854   1.414       .  A
C1854      O1858   1.371       .  S
C1855      C1860   1.405       .  A
C1855      C1864   1.402       .  A
O1856      H1872   0.992       .  S
O1858      H1869   0.994       .  S
C1860      C1861   1.398       .  A
C1860      O1865   1.372       .  S
C1861      C1862   1.407       .  A
C1861      H1866   1.083       .  S
C1862      C1863   1.413       .  A
C1863      C1864   1.401       .  A
C1863      O1867   1.371       .  S
C1864      H1868   1.084       .  S
O1865      H1870   0.991       .  S
O1867      H1871   0.992       .  S
C1873      C1874   1.404       .  A
C1873      C1878   1.399       .  A
C1873      H1883   1.084       .  S
C1874      C1879   1.483       .  S
C1874      C1875   1.407       .  A
C1875      C1876   1.402       .  A
C1875      O1880   1.372       .  S
C1876      C1877   1.407       .  A
C1876      H1881   1.083       .  S
C1877      C1878   1.411       .  A
C1878      O1882   1.371       .  S
C1879      C1884   1.409       .  A
C1879      C1888   1.402       .  A
O1880      H1896   0.992       .  S
O1882      H1893   0.992       .  S
C1884      C1885   1.403       .  A
C1884      O1889   1.371       .  S
C1885      C1886   1.406       .  A
C1885      H1890   1.083       .  S
C1886      C1887   1.410       .  A
C1887      C1888   1.397       .  A
C1887      O1891   1.372       .  S
C1888      H1892   1.084       .  S
O1889      H1894   0.992       .  S
O1891      H1895   0.992       .  S
C1897      C1898   1.400       .  A
C1897      C1902   1.397       .  A
C1897      H1907   1.084       .  S
C1898      C1903   1.476       .  S
C1898      C1899   1.406       .  A
C1899      C1900   1.400       .  A
C1899      O1904   1.372       .  S
C1900      C1901   1.407       .  A
C1900      H1905   1.083       .  S
C1901      C1902   1.414       .  A
C1902      O1906   1.372       .  S
C1903      C1908   1.406       .  A
C1903      C1912   1.401       .  A
O1904      H1920   0.992       .  S
O1906      H1917   0.992       .  S
C1908      C1909   1.398       .  A
C1908      O1913   1.372       .  S
C1909      C1910   1.407       .  A
C1909      H1914   1.083       .  S
C1910      C1911   1.413       .  A
C1911      C1912   1.398       .  A
C1911      O1915   1.372       .  S
C1912      H1916   1.084       .  S
O1913      H1918   0.991       .  S
O1915      H1919   0.993       .  S
C1921      C1922   1.404       .  A
C1921      C1926   1.397       .  A
C1921      H1931   1.083       .  S
C1922      C1927   1.482       .  S
C1922      C1923   1.410       .  A
C1923      C1924   1.400       .  A
C1923      O1928   1.372       .  S
C1924      C1925   1.402       .  A
C1924      H1929   1.084       .  S
C1925      C1926   1.406       .  A
C1926      O1930   1.372       .  S
C1927      C1932   1.407       .  A
C1927      C1936   1.403       .  A
O1928      H1944   0.992       .  S
O1930      H1941   0.993       .  S
C1932      C1933   1.398       .  A
C1932      O1937   1.372       .  S
C1933      C1934   1.407       .  A
C1933      H1938   1.083       .  S
C1934      C1935   1.414       .  A
C1935      C1936   1.401       .  A
C1935      O1939   1.371       .  S
C1936      H1940   1.084       .  S
O1937      H1942   0.991       .  S
O1939      H1943   0.992       .  S
C1945      C1946   1.403       .  A
C1945      C1950   1.399       .  A
C1945      H1955   1.084       .  S
C1946      C1951   1.478       .  S
C1946      C1947   1.407       .  A
C1947      C1948   1.398       .  A
C1947      O1952   1.373       .  S
C1948      C1949   1.402       .  A
C1948      H1953   1.084       .  S
C1949      C1950   1.410       .  A
C1950      O1954   1.372       .  S
C1951      C1956   1.408       .  A
C1951      C1960   1.402       .  A
O1952      H1968   0.992       .  S
O1954      H1965   0.992       .  S
C1956      C1957   1.396       .  A
C1956      O1961   1.372       .  S
C1957      C1958   1.404       .  A
C1957      H1962   1.084       .  S
C1958      C1959   1.412       .  A
C1959      C1960   1.400       .  A
C1959      O1963   1.372       .  S
C1960      H1964   1.084       .  S
O1961      H1966   0.992       .  S
O1963      H1967   0.992       .  S
C1969      C1970   1.401       .  A
C1969      C1974   1.402       .  A
C1969      H1979   1.084       .  S
C1970      C1975   1.477       .  S
C1970      C1971   1.404       .  A
C1971      C1972   1.400       .  A
C1971      O1976   1.372       .  S
C1972      C1973   1.409       .  A
C1972      H1977   1.083       .  S
C1973      C1974   1.414       .  A
C1974      O1978   1.371       .  S
C1975      C1980   1.403       .  A
C1975      C1984   1.401       .  A
O1976      H1992   0.991       .  S
O1978      H1989   0.992       .  S
C1980      C1981   1.400       .  A
C1980      O1985   1.372       .  S
C1981      C1982   1.410       .  A
C1981      H1986   1.083       .  S
C1982      C1983   1.414       .  A
C1983      C1984   1.402       .  A
C1983      O1987   1.371       .  S
C1984      H1988   1.084       .  S
O1985      H1990   0.991       .  S
O1987      H1991   0.992       .  S
C1993      C1994   1.399       .  A
C1993      C1998   1.400       .  A
C1993      H2003   1.084       .  S
C1994      C1999   1.474       .  S
C1994      C1995   1.403       .  A
C1995      C1996   1.400       .  A
C1995      O2000   1.372       .  S
C1996      C1997   1.409       .  A
C1996      H2001   1.083       .  S
C1997      C1998   1.415       .  A
C1998      O2002   1.371       .  S
C1999      C2004   1.404       .  A
C1999      C2008   1.399       .  A
O2000      H2016   0.991       .  S
O2002      H2013   0.992       .  S
C2004      C2005   1.400       .  A
C2004      O2009   1.372       .  S
C2005      C2006   1.408       .  A
C2005      H2010   1.083       .  S
C2006      C2007   1.416       .  A
C2007      C2008   1.400       .  A
C2007      O2011   1.371       .  S
C2008      H2012   1.084       .  S
O2009      H2014   0.992       .  S
O2011      H2015   0.992       .  S
C2017      C2018   1.402       .  A
C2017      C2022   1.400       .  A
C2017      H2027   1.084       .  S
C2018      C2023   1.474       .  S
C2018      C2019   1.405       .  A
C2019      C2020   1.397       .  A
C2019      O2024   1.372       .  S
C2020      C2021   1.404       .  A
C2020      H2025   1.084       .  S
C2021      C2022   1.410       .  A
C2022      O2026   1.372       .  S
C2023      C2028   1.405       .  A
C2023      C2032   1.400       .  A
O2024      H2040   0.992       .  S
O2026      H2037   0.992       .  S
C2028      C2029   1.397       .  A
C2028      O2033   1.372       .  S
C2029      C2030   1.406       .  A
C2029      H2034   1.083       .  S
C2030      C2031   1.415       .  A
C2031      C2032   1.400       .  A
C2031      O2035   1.372       .  S
C2032      H2036   1.084       .  S
O2033      H2038   0.992       .  S
O2035      H2039   0.992       .  S
C2041      C2042   1.402       .  A
C2041      C2046   1.399       .  A
C2041      H2051   1.084       .  S
C2042      C2047   1.475       .  S
C2042      C2043   1.407       .  A
C2043      C2044   1.395       .  A
C2043      O2048   1.372       .  S
C2044      C2045   1.403       .  A
C2044      H2049   1.084       .  S
C2045      C2046   1.411       .  A
C2046      O2050   1.372       .  S
C2047      C2052   1.406       .  A
C2047      C2056   1.401       .  A
O2048      H2064   0.992       .  S
O2050      H2061   0.992       .  S
C2052      C2053   1.401       .  A
C2052      O2057   1.372       .  S
C2053      C2054   1.407       .  A
C2053      H2058   1.084       .  S
C2054      C2055   1.409       .  A
C2055      C2056   1.396       .  A
C2055      O2059   1.372       .  S
C2056      H2060   1.084       .  S
O2057      H2062   0.991       .  S
O2059      H2063   0.992       .  S
C2065      C2066   1.399       .  A
C2065      C2070   1.399       .  A
C2065      H2075   1.084       .  S
C2066      C2071   1.475       .  S
C2066      C2067   1.405       .  A
C2067      C2068   1.399       .  A
C2067      O2072   1.372       .  S
C2068      C2069   1.407       .  A
C2068      H2073   1.083       .  S
C2069      C2070   1.416       .  A
C2070      O2074   1.372       .  S
C2071      C2076   1.405       .  A
C2071      C2080   1.400       .  A
O2072      H2088   0.992       .  S
O2074      H2085   0.992       .  S
C2076      C2077   1.399       .  A
C2076      O2081   1.372       .  S
C2077      C2078   1.408       .  A
C2077      H2082   1.083       .  S
C2078      C2079   1.414       .  A
C2079      C2080   1.399       .  A
C2079      O2083   1.371       .  S
C2080      H2084   1.084       .  S
O2081      H2086   0.991       .  S
O2083      H2087   0.992       .  S
C2089      C2090   1.400       .  A
C2089      C2094   1.401       .  A
C2089      H2099   1.084       .  S
C2090      C2095   1.478       .  S
C2090      C2091   1.406       .  A
C2091      C2092   1.402       .  A
C2091      O2096   1.372       .  S
C2092      C2093   1.406       .  A
C2092      H2097   1.083       .  S
C2093      C2094   1.413       .  A
C2094      O2098   1.372       .  S
C2095      C2100   1.404       .  A
C2095      C2104   1.402       .  A
O2096      H2112   0.992       .  S
O2098      H2109   0.992       .  S
C2100      C2101   1.399       .  A
C2100      O2105   1.371       .  S
C2101      C2102   1.408       .  A
C2101      H2106   1.083       .  S
C2102      C2103   1.414       .  A
C2103      C2104   1.402       .  A
C2103      O2107   1.371       .  S
C2104      H2108   1.084       .  S
O2105      H2110   0.991       .  S
O2107      H2111   0.992       .  S
C2113      C2114   1.405       .  A
C2113      C2118   1.401       .  A
C2113      H2123   1.084       .  S
C2114      C2119   1.487       .  S
C2114      C2115   1.408       .  A
C2115      C2116   1.400       .  A
C2115      O2120   1.373       .  S
C2116      C2117   1.407       .  A
C2116      H2121   1.083       .  S
C2117      C2118   1.412       .  A
C2118      O2122   1.371       .  S
C2119      C2124   1.412       .  A
C2119      C2128   1.405       .  A
O2120      H2136   0.993       .  S
O2122      H2133   0.992       .  S
C2124      C2125   1.402       .  A
C2124      O2129   1.371       .  S
C2125      C2126   1.404       .  A
C2125      H2130   1.084       .  S
C2126      C2127   1.406       .  A
C2127      C2128   1.398       .  A
C2127      O2131   1.372       .  S
C2128      H2132   1.084       .  S
O2129      H2134   0.992       .  S
O2131      H2135   0.992       .  S
C2137      C2138   1.398       .  A
C2137      C2142   1.396       .  A
C2137      H2147   1.084       .  S
C2138      C2143   1.468       .  S
C2138      C2139   1.403       .  A
C2139      C2140   1.398       .  A
C2139      O2144   1.372       .  S
C2140      C2141   1.408       .  A
C2140      H2145   1.083       .  S
C2141      C2142   1.414       .  A
C2142      O2146   1.371       .  S
C2143      C2148   1.402       .  A
C2143      C2152   1.399       .  A
O2144      H2160   0.992       .  S
O2146      H2157   0.992       .  S
C2148      C2149   1.395       .  A
C2148      O2153   1.372       .  S
C2149      C2150   1.406       .  A
C2149      H2154   1.083       .  S
C2150      C2151   1.415       .  A
C2151      C2152   1.399       .  A
C2151      O2155   1.372       .  S
C2152      H2156   1.084       .  S
O2153      H2158   0.991       .  S
O2155      H2159   0.992       .  S
C2161      C2162   1.403       .  A
C2161      C2166   1.399       .  A
C2161      H2171   1.083       .  S
C2162      C2167   1.482       .  S
C2162      C2163   1.409       .  A
C2163      C2164   1.400       .  A
C2163      O2168   1.372       .  S
C2164      C2165   1.404       .  A
C2164      H2169   1.084       .  S
C2165      C2166   1.410       .  A
C2166      O2170   1.372       .  S
C2167      C2172   1.408       .  A
C2167      C2176   1.403       .  A
O2168      H2184   0.992       .  S
O2170      H2181   0.992       .  S
C2172      C2173   1.399       .  A
C2172      O2177   1.372       .  S
C2173      C2174   1.406       .  A
C2173      H2178   1.083       .  S
C2174      C2175   1.412       .  A
C2175      C2176   1.399       .  A
C2175      O2179   1.371       .  S
C2176      H2180   1.084       .  S
O2177      H2182   0.991       .  S
O2179      H2183   0.992       .  S
C2185      C2186   1.402       .  A
C2185      C2190   1.398       .  A
C2185      H2195   1.084       .  S
C2186      C2191   1.481       .  S
C2186      C2187   1.409       .  A
C2187      C2188   1.401       .  A
C2187      O2192   1.372       .  S
C2188      C2189   1.404       .  A
C2188      H2193   1.084       .  S
C2189      C2190   1.409       .  A
C2190      O2194   1.372       .  S
C2191      C2196   1.408       .  A
C2191      C2200   1.401       .  A
O2192      H2208   0.992       .  S
O2194      H2205   0.992       .  S
C2196      C2197   1.400       .  A
C2196      O2201   1.372       .  S
C2197      C2198   1.406       .  A
C2197      H2202   1.083       .  S
C2198      C2199   1.414       .  A
C2199      C2200   1.399       .  A
C2199      O2203   1.372       .  S
C2200      H2204   1.084       .  S
O2201      H2206   0.992       .  S
O2203      H2207   0.991       .  S
C2209      C2210   1.401       .  A
C2209      C2214   1.400       .  A
C2209      H2219   1.084       .  S
C2210      C2215   1.476       .  S
C2210      C2211   1.405       .  A
C2211      C2212   1.399       .  A
C2211      O2216   1.372       .  S
C2212      C2213   1.408       .  A
C2212      H2217   1.083       .  S
C2213      C2214   1.412       .  A
C2214      O2218   1.371       .  S
C2215      C2220   1.405       .  A
C2215      C2224   1.401       .  A
O2216      H2232   0.992       .  S
O2218      H2229   0.992       .  S
C2220      C2221   1.396       .  A
C2220      O2225   1.372       .  S
C2221      C2222   1.407       .  A
C2221      H2226   1.083       .  S
C2222      C2223   1.415       .  A
C2223      C2224   1.402       .  A
C2223      O2227   1.371       .  S
C2224      H2228   1.084       .  S
O2225      H2230   0.992       .  S
O2227      H2231   0.992       .  S
C2233      C2234   1.398       .  A
C2233      C2238   1.398       .  A
C2233      H2243   1.084       .  S
C2234      C2239   1.475       .  S
C2234      C2235   1.405       .  A
C2235      C2236   1.402       .  A
C2235      O2240   1.372       .  S
C2236      C2237   1.408       .  A
C2236      H2241   1.083       .  S
C2237      C2238   1.416       .  A
C2238      O2242   1.372       .  S
C2239      C2244   1.405       .  A
C2239      C2248   1.400       .  A
O2240      H2256   0.992       .  S
O2242      H2253   0.993       .  S
C2244      C2245   1.400       .  A
C2244      O2249   1.372       .  S
C2245      C2246   1.408       .  A
C2245      H2250   1.083       .  S
C2246      C2247   1.413       .  A
C2247      C2248   1.399       .  A
C2247      O2251   1.371       .  S
C2248      H2252   1.084       .  S
O2249      H2254   0.991       .  S
O2251      H2255   0.993       .  S
C2257      C2258   1.402       .  A
C2257      C2262   1.401       .  A
C2257      H2267   1.084       .  S
C2258      C2263   1.473       .  S
C2258      C2259   1.405       .  A
C2259      C2260   1.396       .  A
C2259      O2264   1.372       .  S
C2260      C2261   1.403       .  A
C2260      H2265   1.084       .  S
C2261      C2262   1.409       .  A
C2262      O2266   1.372       .  S
C2263      C2268   1.404       .  A
C2263      C2272   1.401       .  A
O2264      H2280   0.992       .  S
O2266      H2277   0.992       .  S
C2268      C2269   1.396       .  A
C2268      O2273   1.372       .  S
C2269      C2270   1.407       .  A
C2269      H2274   1.083       .  S
C2270      C2271   1.413       .  A
C2271      C2272   1.400       .  A
C2271      O2275   1.371       .  S
C2272      H2276   1.084       .  S
O2273      H2278   0.992       .  S
O2275      H2279   0.992       .  S
C2281      C2282   1.405       .  A
C2281      C2286   1.401       .  A
C2281      H2291   1.083       .  S
C2282      C2287   1.490       .  S
C2282      C2283   1.413       .  A
C2283      C2284   1.398       .  A
C2283      O2288   1.372       .  S
C2284      C2285   1.403       .  A
C2284      H2289   1.084       .  S
C2285      C2286   1.411       .  A
C2286      O2290   1.372       .  S
C2287      C2292   1.412       .  A
C2287      C2296   1.404       .  A
O2288      H2304   0.991       .  S
O2290      H2301   0.992       .  S
C2292      C2293   1.403       .  A
C2292      O2297   1.372       .  S
C2293      C2294   1.404       .  A
C2293      H2298   1.083       .  S
C2294      C2295   1.412       .  A
C2295      C2296   1.397       .  A
C2295      O2299   1.372       .  S
C2296      H2300   1.083       .  S
O2297      H2302   0.992       .  S
O2299      H2303   0.992       .  S
C2305      C2306   1.403       .  A
C2305      C2310   1.398       .  A
C2305      H2315   1.084       .  S
C2306      C2311   1.479       .  S
C2306      C2307   1.407       .  A
C2307      C2308   1.400       .  A
C2307      O2312   1.372       .  S
C2308      C2309   1.406       .  A
C2308      H2313   1.084       .  S
C2309      C2310   1.410       .  A
C2310      O2314   1.372       .  S
C2311      C2316   1.405       .  A
C2311      C2320   1.402       .  A
O2312      H2328   0.992       .  S
O2314      H2325   0.993       .  S
C2316      C2317   1.398       .  A
C2316      O2321   1.372       .  S
C2317      C2318   1.408       .  A
C2317      H2322   1.083       .  S
C2318      C2319   1.413       .  A
C2319      C2320   1.400       .  A
C2319      O2323   1.371       .  S
C2320      H2324   1.084       .  S
O2321      H2326   0.991       .  S
O2323      H2327   0.992       .  S
C2329      C2330   1.399       .  A
C2329      C2334   1.399       .  A
C2329      H2339   1.084       .  S
C2330      C2335   1.476       .  S
C2330      C2331   1.405       .  A
C2331      C2332   1.402       .  A
C2331      O2336   1.372       .  S
C2332      C2333   1.409       .  A
C2332      H2337   1.083       .  S
C2333      C2334   1.414       .  A
C2334      O2338   1.371       .  S
C2335      C2340   1.404       .  A
C2335      C2344   1.400       .  A
O2336      H2352   0.992       .  S
O2338      H2349   0.992       .  S
C2340      C2341   1.400       .  A
C2340      O2345   1.372       .  S
C2341      C2342   1.408       .  A
C2341      H2346   1.083       .  S
C2342      C2343   1.414       .  A
C2343      C2344   1.401       .  A
C2343      O2347   1.371       .  S
C2344      H2348   1.084       .  S
O2345      H2350   0.992       .  S
O2347      H2351   0.992       .  S
C2353      C2354   1.407       .  A
C2353      C2358   1.402       .  A
C2353      H2363   1.083       .  S
C2354      C2359   1.485       .  S
C2354      C2355   1.409       .  A
C2355      C2356   1.399       .  A
C2355      O2360   1.373       .  S
C2356      C2357   1.402       .  A
C2356      H2361   1.084       .  S
C2357      C2358   1.407       .  A
C2358      O2362   1.372       .  S
C2359      C2364   1.410       .  A
C2359      C2368   1.402       .  A
O2360      H2376   0.992       .  S
O2362      H2373   0.993       .  S
C2364      C2365   1.400       .  A
C2364      O2369   1.372       .  S
C2365      C2366   1.406       .  A
C2365      H2370   1.083       .  S
C2366      C2367   1.416       .  A
C2367      C2368   1.400       .  A
C2367      O2371   1.371       .  S
C2368      H2372   1.084       .  S
O2369      H2374   0.992       .  S
O2371      H2375   0.992       .  S
C2377      C2378   1.402       .  A
C2377      C2382   1.399       .  A
C2377      H2387   1.084       .  S
C2378      C2383   1.474       .  S
C2378      C2379   1.404       .  A
C2379      C2380   1.396       .  A
C2379      O2384   1.372       .  S
C2380      C2381   1.407       .  A
C2380      H2385   1.083       .  S
C2381      C2382   1.413       .  A
C2382      O2386   1.371       .  S
C2383      C2388   1.404       .  A
C2383      C2392   1.401       .  A
O2384      H2400   0.992       .  S
O2386      H2397   0.992       .  S
C2388      C2389   1.396       .  A
C2388      O2393   1.372       .  S
C2389      C2390   1.407       .  A
C2389      H2394   1.083       .  S
C2390      C2391   1.413       .  A
C2391      C2392   1.399       .  A
C2391      O2395   1.372       .  S
C2392      H2396   1.084       .  S
O2393      H2398   0.992       .  S
O2395      H2399   0.992       .  S
C2401      C2402   1.402       .  A
C2401      C2406   1.399       .  A
C2401      H2411   1.084       .  S
C2402      C2407   1.478       .  S
C2402      C2403   1.407       .  A
C2403      C2404   1.398       .  A
C2403      O2408   1.372       .  S
C2404      C2405   1.404       .  A
C2404      H2409   1.084       .  S
C2405      C2406   1.411       .  A
C2406      O2410   1.372       .  S
C2407      C2412   1.407       .  A
C2407      C2416   1.403       .  A
O2408      H2424   0.992       .  S
O2410      H2421   0.992       .  S
C2412      C2413   1.398       .  A
C2412      O2417   1.372       .  S
C2413      C2414   1.405       .  A
C2413      H2418   1.084       .  S
C2414      C2415   1.409       .  A
C2415      C2416   1.399       .  A
C2415      O2419   1.371       .  S
C2416      H2420   1.084       .  S
O2417      H2422   0.992       .  S
O2419      H2423   0.992       .  S
C2425      C2426   1.404       .  A
C2425      C2430   1.398       .  A
C2425      H2435   1.083       .  S
C2426      C2431   1.484       .  S
C2426      C2427   1.409       .  A
C2427      C2428   1.400       .  A
C2427      O2432   1.372       .  S
C2428      C2429   1.405       .  A
C2428      H2433   1.084       .  S
C2429      C2430   1.408       .  A
C2430      O2434   1.372       .  S
C2431      C2436   1.408       .  A
C2431      C2440   1.403       .  A
O2432      H2448   0.992       .  S
O2434      H2445   0.992       .  S
C2436      C2437   1.400       .  A
C2436      O2441   1.373       .  S
C2437      C2438   1.406       .  A
C2437      H2442   1.083       .  S
C2438      C2439   1.413       .  A
C2439      C2440   1.399       .  A
C2439      O2443   1.372       .  S
C2440      H2444   1.083       .  S
O2441      H2446   0.991       .  S
O2443      H2447   0.992       .  S
C2449      C2450   1.400       .  A
C2449      C2454   1.402       .  A
C2449      H2459   1.084       .  S
C2450      C2455   1.476       .  S
C2450      C2451   1.404       .  A
C2451      C2452   1.398       .  A
C2451      O2456   1.372       .  S
C2452      C2453   1.408       .  A
C2452      H2457   1.083       .  S
C2453      C2454   1.415       .  A
C2454      O2458   1.371       .  S
C2455      C2460   1.405       .  A
C2455      C2464   1.400       .  A
O2456      H2472   0.991       .  S
O2458      H2469   0.992       .  S
C2460      C2461   1.399       .  A
C2460      O2465   1.372       .  S
C2461      C2462   1.406       .  A
C2461      H2466   1.083       .  S
C2462      C2463   1.414       .  A
C2463      C2464   1.401       .  A
C2463      O2467   1.372       .  S
C2464      H2468   1.084       .  S
O2465      H2470   0.991       .  S
O2467      H2471   0.992       .  S
C2473      C2474   1.399       .  A
C2473      C2478   1.398       .  A
C2473      H2483   1.084       .  S
C2474      C2479   1.477       .  S
C2474      C2475   1.406       .  A
C2475      C2476   1.400       .  A
C2475      O2480   1.372       .  S
C2476      C2477   1.408       .  A
C2476      H2481   1.083       .  S
C2477      C2478   1.414       .  A
C2478      O2482   1.372       .  S
C2479      C2484   1.406       .  A
C2479      C2488   1.403       .  A
O2480      H2496   0.992       .  S
O2482      H2493   0.992       .  S
C2484      C2485   1.398       .  A
C2484      O2489   1.372       .  S
C2485      C2486   1.404       .  A
C2485      H2490   1.084       .  S
C2486      C2487   1.409       .  A
C2487      C2488   1.401       .  A
C2487      O2491   1.372       .  S
C2488      H2492   1.084       .  S
O2489      H2494   0.991       .  S
O2491      H2495   0.992       .  S
C2497      C2498   1.403       .  A
C2497      C2502   1.400       .  A
C2497      H2507   1.084       .  S
C2498      C2503   1.479       .  S
C2498      C2499   1.408       .  A
C2499      C2500   1.398       .  A
C2499      O2504   1.372       .  S
C2500      C2501   1.402       .  A
C2500      H2505   1.084       .  S
C2501      C2502   1.409       .  A
C2502      O2506   1.372       .  S
C2503      C2508   1.406       .  A
C2503      C2512   1.402       .  A
O2504      H2520   0.992       .  S
O2506      H2517   0.993       .  S
C2508      C2509   1.399       .  A
C2508      O2513   1.372       .  S
C2509      C2510   1.407       .  A
C2509      H2514   1.083       .  S
C2510      C2511   1.413       .  A
C2511      C2512   1.399       .  A
C2511      O2515   1.372       .  S
C2512      H2516   1.084       .  S
O2513      H2518   0.992       .  S
O2515      H2519   0.992       .  S
C2521      C2522   1.403       .  A
C2521      C2526   1.400       .  A
C2521      H2531   1.084       .  S
C2522      C2527   1.478       .  S
C2522      C2523   1.405       .  A
C2523      C2524   1.398       .  A
C2523      O2528   1.372       .  S
C2524      C2525   1.407       .  A
C2524      H2529   1.083       .  S
C2525      C2526   1.411       .  A
C2526      O2530   1.372       .  S
C2527      C2532   1.405       .  A
C2527      C2536   1.403       .  A
O2528      H2544   0.992       .  S
O2530      H2541   0.992       .  S
C2532      C2533   1.398       .  A
C2532      O2537   1.372       .  S
C2533      C2534   1.405       .  A
C2533      H2538   1.084       .  S
C2534      C2535   1.410       .  A
C2535      C2536   1.401       .  A
C2535      O2539   1.372       .  S
C2536      H2540   1.084       .  S
O2537      H2542   0.991       .  S
O2539      H2543   0.992       .  S
C2545      C2546   1.399       .  A
C2545      C2550   1.399       .  A
C2545      H2555   1.084       .  S
C2546      C2551   1.471       .  S
C2546      C2547   1.403       .  A
C2547      C2548   1.398       .  A
C2547      O2552   1.372       .  S
C2548      C2549   1.407       .  A
C2548      H2553   1.083       .  S
C2549      C2550   1.414       .  A
C2550      O2554   1.372       .  S
C2551      C2556   1.403       .  A
C2551      C2560   1.399       .  A
O2552      H2568   0.992       .  S
O2554      H2565   0.992       .  S
C2556      C2557   1.398       .  A
C2556      O2561   1.372       .  S
C2557      C2558   1.408       .  A
C2557      H2562   1.083       .  S
C2558      C2559   1.415       .  A
C2559      C2560   1.398       .  A
C2559      O2563   1.371       .  S
C2560      H2564   1.084       .  S
O2561      H2566   0.992       .  S
O2563      H2567   0.992       .  S
C2569      C2570   1.404       .  A
C2569      C2574   1.402       .  A
C2569      H2579   1.083       .  S
C2570      C2575   1.482       .  S
C2570      C2571   1.407       .  A
C2571      C2572   1.397       .  A
C2571      O2576   1.372       .  S
C2572      C2573   1.405       .  A
C2572      H2577   1.083       .  S
C2573      C2574   1.412       .  A
C2574      O2578   1.371       .  S
C2575      C2580   1.407       .  A
C2575      C2584   1.403       .  A
O2576      H2592   0.992       .  S
O2578      H2589   0.993       .  S
C2580      C2581   1.400       .  A
C2580      O2585   1.372       .  S
C2581      C2582   1.407       .  A
C2581      H2586   1.083       .  S
C2582      C2583   1.412       .  A
C2583      C2584   1.399       .  A
C2583      O2587   1.372       .  S
C2584      H2588   1.084       .  S
O2585      H2590   0.991       .  S
O2587      H2591   0.993       .  S
C2593      C2594   1.403       .  A
C2593      C2598   1.399       .  A
C2593      H2603   1.084       .  S
C2594      C2599   1.480       .  S
C2594      C2595   1.408       .  A
C2595      C2596   1.395       .  A
C2595      O2600   1.372       .  S
C2596      C2597   1.405       .  A
C2596      H2601   1.083       .  S
C2597      C2598   1.413       .  A
C2598      O2602   1.372       .  S
C2599      C2604   1.409       .  A
C2599      C2608   1.404       .  A
O2600      H2616   0.992       .  S
O2602      H2613   0.992       .  S
C2604      C2605   1.398       .  A
C2604      O2609   1.372       .  S
C2605      C2606   1.403       .  A
C2605      H2610   1.084       .  S
C2606      C2607   1.408       .  A
C2607      C2608   1.396       .  A
C2607      O2611   1.372       .  S
C2608      H2612   1.084       .  S
O2609      H2614   0.992       .  S
O2611      H2615   0.992       .  S
C2617      C2618   1.404       .  A
C2617      C2622   1.400       .  A
C2617      H2627   1.083       .  S
C2618      C2623   1.484       .  S
C2618      C2619   1.409       .  A
C2619      C2620   1.398       .  A
C2619      O2624   1.372       .  S
C2620      C2621   1.404       .  A
C2620      H2625   1.084       .  S
C2621      C2622   1.411       .  A
C2622      O2626   1.372       .  S
C2623      C2628   1.408       .  A
C2623      C2632   1.403       .  A
O2624      H2640   0.992       .  S
O2626      H2637   0.992       .  S
C2628      C2629   1.400       .  A
C2628      O2633   1.372       .  S
C2629      C2630   1.408       .  A
C2629      H2634   1.083       .  S
C2630      C2631   1.414       .  A
C2631      C2632   1.400       .  A
C2631      O2635   1.371       .  S
C2632      H2636   1.084       .  S
O2633      H2638   0.992       .  S
O2635      H2639   0.992       .  S
C2641      C2642   1.402       .  A
C2641      C2646   1.398       .  A
C2641      H2651   1.083       .  S
C2642      C2647   1.481       .  S
C2642      C2643   1.408       .  A
C2643      C2644   1.399       .  A
C2643      O2648   1.372       .  S
C2644      C2645   1.407       .  A
C2644      H2649   1.083       .  S
C2645      C2646   1.413       .  A
C2646      O2650   1.371       .  S
C2647      C2652   1.409       .  A
C2647      C2656   1.404       .  A
O2648      H2664   0.992       .  S
O2650      H2661   0.992       .  S
C2652      C2653   1.399       .  A
C2652      O2657   1.372       .  S
C2653      C2654   1.403       .  A
C2653      H2658   1.084       .  S
C2654      C2655   1.408       .  A
C2655      C2656   1.399       .  A
C2655      O2659   1.372       .  S
C2656      H2660   1.084       .  S
O2657      H2662   0.991       .  S
O2659      H2663   0.992       .  S
C2665      C2666   1.406       .  A
C2665      C2670   1.400       .  A
C2665      H2675   1.083       .  S
C2666      C2671   1.486       .  S
C2666      C2667   1.410       .  A
C2667      C2668   1.400       .  A
C2667      O2672   1.372       .  S
C2668      C2669   1.403       .  A
C2668      H2673   1.084       .  S
C2669      C2670   1.407       .  A
C2670      O2674   1.372       .  S
C2671      C2676   1.408       .  A
C2671      C2680   1.403       .  A
O2672      H2688   0.992       .  S
O2674      H2685   0.992       .  S
C2676      C2677   1.401       .  A
C2676      O2681   1.372       .  S
C2677      C2678   1.406       .  A
C2677      H2682   1.083       .  S
C2678      C2679   1.415       .  A
C2679      C2680   1.401       .  A
C2679      O2683   1.372       .  S
C2680      H2684   1.084       .  S
O2681      H2686   0.991       .  S
O2683      H2687   0.992       .  S
C2689      C2690   1.402       .  A
C2689      C2694   1.397       .  A
C2689      H2699   1.084       .  S
C2690      C2695   1.475       .  S
C2690      C2691   1.407       .  A
C2691      C2692   1.401       .  A
C2691      O2696   1.371       .  S
C2692      C2693   1.402       .  A
C2692      H2697   1.084       .  S
C2693      C2694   1.407       .  A
C2694      O2698   1.372       .  S
C2695      C2700   1.407       .  A
C2695      C2704   1.399       .  A
O2696      H2712   0.991       .  S
O2698      H2709   0.992       .  S
C2700      C2701   1.402       .  A
C2700      O2705   1.372       .  S
C2701      C2702   1.406       .  A
C2701      H2706   1.083       .  S
C2702      C2703   1.412       .  A
C2703      C2704   1.397       .  A
C2703      O2707   1.372       .  S
C2704      H2708   1.084       .  S
O2705      H2710   0.992       .  S
O2707      H2711   0.992       .  S
C2713      C2714   1.401       .  A
C2713      C2718   1.400       .  A
C2713      H2723   1.084       .  S
C2714      C2719   1.472       .  S
C2714      C2715   1.405       .  A
C2715      C2716   1.395       .  A
C2715      O2720   1.372       .  S
C2716      C2717   1.405       .  A
C2716      H2721   1.083       .  S
C2717      C2718   1.412       .  A
C2718      O2722   1.372       .  S
C2719      C2724   1.403       .  A
C2719      C2728   1.400       .  A
O2720      H2736   0.992       .  S
O2722      H2733   0.992       .  S
C2724      C2725   1.398       .  A
C2724      O2729   1.372       .  S
C2725      C2726   1.408       .  A
C2725      H2730   1.083       .  S
C2726      C2727   1.414       .  A
C2727      C2728   1.397       .  A
C2727      O2731   1.372       .  S
C2728      H2732   1.084       .  S
O2729      H2734   0.991       .  S
O2731      H2735   0.992       .  S
C2737      C2738   1.404       .  A
C2737      C2742   1.401       .  A
C2737      H2747   1.083       .  S
C2738      C2743   1.486       .  S
C2738      C2739   1.409       .  A
C2739      C2740   1.399       .  A
C2739      O2744   1.372       .  S
C2740      C2741   1.406       .  A
C2740      H2745   1.083       .  S
C2741      C2742   1.414       .  A
C2742      O2746   1.372       .  S
C2743      C2748   1.409       .  A
C2743      C2752   1.403       .  A
O2744      H2760   0.991       .  S
O2746      H2757   0.992       .  S
C2748      C2749   1.402       .  A
C2748      O2753   1.372       .  S
C2749      C2750   1.406       .  A
C2749      H2754   1.083       .  S
C2750      C2751   1.412       .  A
C2751      C2752   1.400       .  A
C2751      O2755   1.372       .  S
C2752      H2756   1.084       .  S
O2753      H2758   0.992       .  S
O2755      H2759   0.992       .  S
C2761      C2762   1.400       .  A
C2761      C2766   1.399       .  A
C2761      H2771   1.084       .  S
C2762      C2767   1.477       .  S
C2762      C2763   1.406       .  A
C2763      C2764   1.398       .  A
C2763      O2768   1.372       .  S
C2764      C2765   1.406       .  A
C2764      H2769   1.083       .  S
C2765      C2766   1.415       .  A
C2766      O2770   1.371       .  S
C2767      C2772   1.406       .  A
C2767      C2776   1.401       .  A
O2768      H2784   0.992       .  S
O2770      H2781   0.992       .  S
C2772      C2773   1.400       .  A
C2772      O2777   1.372       .  S
C2773      C2774   1.407       .  A
C2773      H2778   1.083       .  S
C2774      C2775   1.413       .  A
C2775      C2776   1.398       .  A
C2775      O2779   1.372       .  S
C2776      H2780   1.084       .  S
O2777      H2782   0.991       .  S
O2779      H2783   0.992       .  S
C2785      C2786   1.401       .  A
C2785      C2790   1.397       .  A
C2785      H2795   1.084       .  S
C2786      C2791   1.476   1_565  S
C2786      C2787   1.407       .  A
C2787      C2788   1.400       .  A
C2787      O2792   1.372       .  S
C2788      C2789   1.404       .  A
C2788      H2793   1.084       .  S
C2789      C2790   1.410       .  A
C2790      O2794   1.372       .  S
C2791      C2796   1.407       .  A
C2791      C2800   1.401       .  A
O2792      H2808   0.992       .  S
O2794      H2805   0.992       .  S
C2796      C2797   1.398       .  A
C2796      O2801   1.372       .  S
C2797      C2798   1.404       .  A
C2797      H2802   1.084       .  S
C2798      C2799   1.411       .  A
C2799      C2800   1.399       .  A
C2799      O2803   1.371       .  S
C2800      H2804   1.084       .  S
O2801      H2806   0.992       .  S
O2803      H2807   0.993       .  S
C2809      C2810   1.400       .  A
C2809      C2814   1.396       .  A
C2809      H2819   1.084       .  S
C2810      C2815   1.474       .  S
C2810      C2811   1.405       .  A
C2811      C2812   1.398       .  A
C2811      O2816   1.372       .  S
C2812      C2813   1.407       .  A
C2812      H2817   1.083       .  S
C2813      C2814   1.413       .  A
C2814      O2818   1.372       .  S
C2815      C2820   1.405       .  A
C2815      C2824   1.401       .  A
O2816      H2832   0.992       .  S
O2818      H2829   0.992       .  S
C2820      C2821   1.397       .  A
C2820      O2825   1.372       .  S
C2821      C2822   1.406       .  A
C2821      H2826   1.083       .  S
C2822      C2823   1.413       .  A
C2823      C2824   1.398       .  A
C2823      O2827   1.371       .  S
C2824      H2828   1.084       .  S
O2825      H2830   0.991       .  S
O2827      H2831   0.993       .  S
C2833      C2834   1.399       .  A
C2833      C2838   1.400       .  A
C2833      H2843   1.084       .  S
C2834      C2839   1.477       .  S
C2834      C2835   1.405       .  A
C2835      C2836   1.401       .  A
C2835      O2840   1.371       .  S
C2836      C2837   1.408       .  A
C2836      H2841   1.083       .  S
C2837      C2838   1.415       .  A
C2838      O2842   1.371       .  S
C2839      C2844   1.404       .  A
C2839      C2848   1.400       .  A
O2840      H2856   0.992       .  S
O2842      H2853   0.992       .  S
C2844      C2845   1.400       .  A
C2844      O2849   1.371       .  S
C2845      C2846   1.408       .  A
C2845      H2850   1.083       .  S
C2846      C2847   1.415       .  A
C2847      C2848   1.402       .  A
C2847      O2851   1.371       .  S
C2848      H2852   1.084       .  S
O2849      H2854   0.991       .  S
O2851      H2855   0.992       .  S
C2857      C2858   1.403       .  A
C2857      C2862   1.397       .  A
C2857      H2867   1.083       .  S
C2858      C2863   1.482   1_455  S
C2858      C2859   1.409       .  A
C2859      C2860   1.399       .  A
C2859      O2864   1.372       .  S
C2860      C2861   1.406       .  A
C2860      H2865   1.083       .  S
C2861      C2862   1.411       .  A
C2862      O2866   1.372       .  S
C2863      C2868   1.409       .  A
C2863      C2872   1.404       .  A
O2864      H2880   0.992       .  S
O2866      H2877   0.992       .  S
C2868      C2869   1.398       .  A
C2868      O2873   1.373       .  S
C2869      C2870   1.403       .  A
C2869      H2874   1.084       .  S
C2870      C2871   1.410       .  A
C2871      C2872   1.398       .  A
C2871      O2875   1.372       .  S
C2872      H2876   1.083       .  S
O2873      H2878   0.992       .  S
O2875      H2879   0.992       .  S
C2881      C2882   1.401       .  A
C2881      C2886   1.398       .  A
C2881      H2891   1.084       .  S
C2882      C2887   1.479       .  S
C2882      C2883   1.407       .  A
C2883      C2884   1.401       .  A
C2883      O2888   1.373       .  S
C2884      C2885   1.406       .  A
C2884      H2889   1.083       .  S
C2885      C2886   1.414       .  A
C2886      O2890   1.372       .  S
C2887      C2892   1.407       .  A
C2887      C2896   1.401       .  A
O2888      H2904   0.992       .  S
O2890      H2901   0.992       .  S
C2892      C2893   1.399       .  A
C2892      O2897   1.371       .  S
C2893      C2894   1.406       .  A
C2893      H2898   1.083       .  S
C2894      C2895   1.414       .  A
C2895      C2896   1.398       .  A
C2895      O2899   1.372       .  S
C2896      H2900   1.084       .  S
O2897      H2902   0.991       .  S
O2899      H2903   0.992       .  S
C2905      C2906   1.400       .  A
C2905      C2910   1.398       .  A
C2905      H2915   1.084       .  S
C2906      C2911   1.473       .  S
C2906      C2907   1.404       .  A
C2907      C2908   1.400       .  A
C2907      O2912   1.372       .  S
C2908      C2909   1.409       .  A
C2908      H2913   1.083       .  S
C2909      C2910   1.413       .  A
C2910      O2914   1.371       .  S
C2911      C2916   1.403       .  A
C2911      C2920   1.400       .  A
O2912      H2928   0.992       .  S
O2914      H2925   0.992       .  S
C2916      C2917   1.398       .  A
C2916      O2921   1.372       .  S
C2917      C2918   1.409       .  A
C2917      H2922   1.083       .  S
C2918      C2919   1.414       .  A
C2919      C2920   1.400       .  A
C2919      O2923   1.371       .  S
C2920      H2924   1.084       .  S
O2921      H2926   0.991       .  S
O2923      H2927   0.992       .  S
C2929      C2930   1.402       .  A
C2929      C2934   1.396       .  A
C2929      H2939   1.083       .  S
C2930      C2935   1.484   1_455  S
C2930      C2931   1.411       .  A
C2931      C2932   1.399       .  A
C2931      O2936   1.372       .  S
C2932      C2933   1.405       .  A
C2932      H2937   1.083       .  S
C2933      C2934   1.412       .  A
C2934      O2938   1.372       .  S
C2935      C2940   1.412       .  A
C2935      C2944   1.403       .  A
O2936      H2952   0.992       .  S
O2938      H2949   0.992       .  S
C2940      C2941   1.400       .  A
C2940      O2945   1.372       .  S
C2941      C2942   1.404       .  A
C2941      H2946   1.084       .  S
C2942      C2943   1.410       .  A
C2943      C2944   1.396       .  A
C2943      O2947   1.372       .  S
C2944      H2948   1.083       .  S
O2945      H2950   0.992       .  S
O2947      H2951   0.993       .  S
C2953      C2954   1.400       .  A
C2953      C2958   1.398       .  A
C2953      H2963   1.084       .  S
C2954      C2959   1.479   1_545  S
C2954      C2955   1.407       .  A
C2955      C2956   1.403       .  A
C2955      O2960   1.372       .  S
C2956      C2957   1.407       .  A
C2956      H2961   1.083       .  S
C2957      C2958   1.414       .  A
C2958      O2962   1.372       .  S
C2959      C2964   1.407       .  A
C2959      C2968   1.404       .  A
O2960      H2976   0.992       .  S
O2962      H2973   0.992       .  S
C2964      C2965   1.399       .  A
C2964      O2969   1.371       .  S
C2965      C2966   1.404       .  A
C2965      H2970   1.084       .  S
C2966      C2967   1.408       .  A
C2967      C2968   1.399       .  A
C2967      O2971   1.372       .  S
C2968      H2972   1.084       .  S
O2969      H2974   0.992       .  S
O2971      H2975   0.992       .  S
