geometry optimzed in LAMMPS
_audit_creation_date              2020-11-30 
_audit_creation_method            'lammps2cif' 
_symmetry_space_group_name_H-M    'P1' 
_symmetry_Int_Tables_number       1 
_symmetry_cell_setting            triclinic 
loop_ 
_symmetry_equiv_pos_as_xyz 
  x,y,z 
_cell_length_a                    39.13668786 
_cell_length_b                    37.631603414395656 
_cell_length_c                    40.40350678205428 
_cell_angle_alpha                 89.97338781305079 
_cell_angle_beta                  89.93851566474535 
_cell_angle_gamma                 90.25591053676791 
loop_ 
_atom_site_label 
_atom_site_type_symbol 
_atom_site_fract_x 
_atom_site_fract_y 
_atom_site_fract_z 
_atom_site_charge 
N1          N  0.94260572  0.00801864  0.25251917    -0.36400
N2          N  0.00030411  0.05593724  0.25669035    -0.56900
N3          N  0.04466046  0.99412506  0.25898126    -0.36400
N4          N  0.98722201  0.94642015  0.25926048    -0.56900
C5          C  0.92637258  0.03951159  0.25499246     0.27200
C6          C  0.91929834  0.98222916  0.25856900     0.27200
C7          C  0.06736058  0.02005535  0.26585341     0.27200
C8          C  0.06071731  0.96292507  0.26363843     0.27200
C9          C  0.97637642  0.07958368  0.24726066     0.35800
C10         C  0.03079398  0.07214204  0.25240998     0.35800
C11         C  0.95747118  0.92972411  0.25272306     0.35800
C12         C  0.01202804  0.92269237  0.25244562     0.35800
C13         C  0.89225332  0.03369661  0.26265039    -0.21700
C14         C  0.88781158  0.99746561  0.26500654    -0.21700
C15         C  0.09811059  0.00513736  0.27569163    -0.21700
C16         C  0.09393572  0.96890074  0.27409096    -0.21700
C17         C  0.99160791  0.11141042  0.23808653    -0.22700
C18         C  0.02617991  0.10670269  0.24138216    -0.22700
C19         C  0.96341611  0.89481690  0.24326451    -0.22700
C20         C  0.99803939  0.89044388  0.24293568    -0.22700
C21         C  0.94091006  0.07302992  0.24764075    -0.18100
C22         C  0.92490301  0.94545517  0.25464742    -0.18100
C23         C  0.04722164  0.92964289  0.25484860    -0.18100
C24         C  0.06277997  0.05619098  0.25823582    -0.18100
H25         H  0.87247613  0.05347333  0.26552902     0.14800
H26         H  0.86392502  0.98382220  0.26987303     0.14800
H27         H  0.12163450  0.01893612  0.28165776     0.14800
H28         H  0.11342350  0.94923721  0.27886630     0.14800
H29         H  0.97914868  0.13539344  0.22968446     0.13100
H30         H  0.04568495  0.12633335  0.23591491     0.13100
H31         H  0.94483197  0.87477145  0.23638475     0.13100
H32         H  0.01135565  0.86640845  0.23604437     0.13100
H33         H  0.96662272  0.00421559  0.24233120     0.26400
H34         H  0.02202002  0.99739675  0.24609254     0.26400
Zr35       Zr  0.27543514  0.29599264  0.23039990     2.17500
O36         O  0.32651310  0.32360616  0.25350864    -0.51100
O37         O  0.24787425  0.33612748  0.26900889    -0.74300
O38         O  0.29700086  0.34676943  0.19962149    -0.81100
O39         O  0.29215674  0.21401511  0.28467715    -0.82800
O40         O  0.27611466  0.34560921  0.14719965    -0.78500
O41         O  0.30963236  0.27061633  0.27449392    -0.90100
O42         O  0.19070118  0.32716305  0.26638174    -0.76100
O43         O  0.22526856  0.31418319  0.20188068    -0.85600
O44         O  0.23011180  0.26392423  0.25612183    -0.85200
O45         O  0.28554867  0.27924043  0.17369997    -0.72000
O46         O  0.28916289  0.23446474  0.22365461    -0.84100
Zr47       Zr  0.20212925  0.20296828  0.16173646     2.26400
Zr48       Zr  0.23425216  0.29705399  0.14530446     2.06300
Zr49       Zr  0.24311386  0.20246631  0.24835898     2.10000
Zr50       Zr  0.18018961  0.28058171  0.22647557     1.78800
O51         O  0.26979583  0.14515195  0.25831945    -0.92900
O52         O  0.14559452  0.32956673  0.20602212    -0.40700
O53         O  0.19271700  0.21908979  0.21856006    -0.77400
O54         O  0.18758775  0.26471459  0.16961870    -0.96100
O55         O  0.24797806  0.23545330  0.13730271    -0.89400
O56         O  0.25147942  0.18443692  0.19161912    -0.92200
C57         C  0.21724065  0.34253457  0.27834299     1.01500
C58         C  0.31179242  0.24098880  0.29004297     1.14500
C59         C  0.29566702  0.35846122  0.16989913     1.05200
O60         O  0.20033720  0.35112566  0.14254903    -0.94400
O61         O  0.19144376  0.28143709  0.10294425    -0.90100
O62         O  0.17064102  0.22628260  0.11445962    -0.83300
C63         C  0.17110887  0.25501845  0.09730524     1.11900
O64         O  0.35621787  0.23053409  0.18251359    -0.96300
Zr65       Zr  0.29728431  0.21725754  0.16740028     1.88900
O66         O  0.23147770  0.16215555  0.12398364    -0.73000
O67         O  0.25943518  0.30812677  0.09109904    -0.52300
O68         O  0.33325815  0.23626593  0.12145026    -0.96900
O69         O  0.32605146  0.16456661  0.18852639    -0.54200
O70         O  0.28793655  0.17508734  0.12305895    -0.73500
C71         C  0.26181498  0.15790669  0.11243807     0.98800
O72         O  0.15420956  0.17074679  0.13709109    -0.62300
O73         O  0.21814419  0.20371211  0.30374377    -0.57100
O74         O  0.17492111  0.15929579  0.19816656    -0.93800
O75         O  0.19805379  0.15819234  0.24964912    -0.92200
O76         O  0.15187263  0.26211303  0.27737398    -0.92600
O77         O  0.12092529  0.26253782  0.21838644    -0.91400
C78         C  0.17634813  0.14759035  0.22804484     1.17700
H79         H  0.22836240  0.26936358  0.27943841     0.33600
H80         H  0.16619893  0.27064421  0.15939941     0.44500
H81         H  0.25455942  0.15932540  0.18989648     0.38000
H82         H  0.30546255  0.29094759  0.16507043     0.34500
H83         H  0.13182317  0.33708742  0.22534244     0.26300
H84         H  0.25662820  0.28551712  0.07884660     0.32200
H85         H  0.32073439  0.25627869  0.11125505     0.38100
H86         H  0.15822686  0.23684731  0.28004777     0.32600
H87         H  0.21876866  0.17875527  0.31145138     0.31500
H88         H  0.26331194  0.13897540  0.28131215     0.33100
H89         H  0.31349795  0.14403864  0.17912339     0.32100
H90         H  0.12180330  0.23636971  0.21598236     0.36100
H91         H  0.15971474  0.14517064  0.13896913     0.28800
H92         H  0.32033420  0.34854052  0.25808743     0.33100
H93         H  0.35637858  0.23065698  0.20701959     0.35900
H94         H  0.23503358  0.21616159  0.31785227     0.28500
H95         H  0.13434857  0.17447623  0.15188919     0.41400
H96         H  0.18133570  0.34561241  0.12721379     0.31500
H97         H  0.16198536  0.34932781  0.20250929     0.39100
H98         H  0.32053398  0.16410535  0.21243945     0.30900
H99         H  0.24357008  0.32484723  0.08016639     0.31000
H100        H  0.34378380  0.32465156  0.23557954     0.31200
Zr101      Zr  0.70653218  0.29968488  0.22862644     2.17500
O102        O  0.69559041  0.36095587  0.24474308    -0.51100
O103        O  0.66539226  0.28054775  0.27068411    -0.74300
O104        O  0.65557140  0.32363434  0.20122454    -0.81100
O105        O  0.79065607  0.30612735  0.27706359    -0.82800
O106        O  0.64534612  0.29222088  0.15425678    -0.78500
O107        O  0.73778675  0.33037281  0.27250016    -0.90100
O108        O  0.66657644  0.22045258  0.27169717    -0.76100
O109        O  0.68042002  0.24650762  0.20885243    -0.85600
O110        O  0.73608065  0.25217108  0.25505466    -0.85200
O111        O  0.71552824  0.30107051  0.16955307    -0.72000
O112        O  0.76559740  0.30515898  0.21256190    -0.84100
Zr113      Zr  0.77778409  0.20412519  0.15951245     2.26400
Zr114      Zr  0.68976749  0.24683151  0.15017568     2.06300
Zr115      Zr  0.79479121  0.25671158  0.23847287     2.10000
Zr116      Zr  0.71062094  0.19924776  0.23452420     1.78800
O117        O  0.84927876  0.28833675  0.23778124    -0.92900
O118        O  0.66279253  0.16224619  0.21683247    -0.40700
O119        O  0.76942388  0.20305426  0.21844617    -0.77400
O120        O  0.71870017  0.19760021  0.17588879    -0.96100
O121        O  0.74850927  0.25170780  0.13313713    -0.89400
O122        O  0.80413210  0.25683808  0.17980690    -0.92200
C123        C  0.65468540  0.25039822  0.28151762     1.01500
C124        C  0.76775961  0.32881688  0.28544224     1.14500
C125        C  0.63821818  0.31726194  0.17479486     1.05200
O126        O  0.63444631  0.21697324  0.15114763    -0.94400
O127        O  0.69174176  0.19711810  0.11173558    -0.90100
O128        O  0.74473712  0.17337535  0.11723479    -0.83300
C129        C  0.71489665  0.17445084  0.10415601     1.11900
O130        O  0.76538398  0.36844211  0.15414425    -0.96300
Zr131      Zr  0.77459356  0.30436927  0.15383640     1.88900
O132        O  0.81772476  0.22312440  0.11615709    -0.73000
O133        O  0.68163053  0.26956574  0.09428794    -0.52300
O134        O  0.75471351  0.32725214  0.10083054    -0.96900
O135        O  0.82607401  0.33766827  0.16821667    -0.54200
O136        O  0.81594167  0.28317469  0.11340485    -0.73500
C137        C  0.82765123  0.25296034  0.10395706     0.98800
O138        O  0.80112203  0.14642648  0.14387548    -0.62300
O139        O  0.80474976  0.23140089  0.29311899    -0.57100
O140        O  0.82337519  0.17583369  0.19097673    -0.93800
O141        O  0.83717318  0.20926911  0.23573108    -0.92200
O142        O  0.72445452  0.17772215  0.28972652    -0.92600
O143        O  0.72507927  0.13664193  0.23990052    -0.91400
C144        C  0.84163955  0.18223131  0.21678012     1.17700
H145        H  0.73374737  0.25369342  0.27875659     0.33600
H146        H  0.70967461  0.17567035  0.16893665     0.44500
H147        H  0.82855135  0.25717762  0.17478346     0.38000
H148        H  0.70458819  0.32157668  0.15973101     0.34500
H149        H  0.65154971  0.15466591  0.23765713     0.26300
H150        H  0.65791226  0.26280260  0.08847024     0.32200
H151        H  0.74855457  0.30591702  0.08777198     0.38100
H152        H  0.74828240  0.18561713  0.29354209     0.32600
H153        H  0.82677825  0.24187163  0.30031389     0.31500
H154        H  0.86388204  0.27504782  0.22210426     0.33100
H155        H  0.84477944  0.32004826  0.16785892     0.32100
H156        H  0.73255675  0.12948334  0.21746057     0.36100
H157        H  0.78249797  0.12890428  0.14734611     0.28800
H158        H  0.67318612  0.36018158  0.25605098     0.33100
H159        H  0.78152024  0.37835568  0.13761016     0.35900
H160        H  0.78752488  0.24241550  0.30779211     0.28500
H161        H  0.80462228  0.14734976  0.11961471     0.41400
H162        H  0.62247052  0.22569907  0.13118121     0.31500
H163        H  0.64648448  0.17902243  0.20665769     0.39100
H164        H  0.82323051  0.34368394  0.19190895     0.30900
H165        H  0.68099320  0.29573390  0.09676448     0.31000
H166        H  0.69164385  0.37429325  0.22396840     0.31200
Zr167      Zr  0.71471318  0.69310080  0.22546325     2.17500
O168        O  0.70596838  0.62920774  0.23205477    -0.51100
O169        O  0.66935076  0.70363031  0.26629405    -0.74300
O170        O  0.74618257  0.66809467  0.27190570    -0.81100
O171        O  0.66389906  0.68707689  0.14300310    -0.82800
O172        O  0.79404195  0.70076595  0.28192855    -0.78500
O173        O  0.67602955  0.65886941  0.19118525    -0.90100
O174        O  0.66033777  0.76285040  0.26995097    -0.76100
O175        O  0.73234410  0.74472657  0.25467708    -0.85600
O176        O  0.68081960  0.73983870  0.20328275    -0.85200
O177        O  0.77497886  0.69851983  0.21441458    -0.72000
O178        O  0.72731995  0.69596307  0.16734890    -0.84100
Zr179      Zr  0.77315909  0.80119480  0.16360659     2.26400
Zr180      Zr  0.79227104  0.75144149  0.24329448     2.06300
Zr181      Zr  0.69438040  0.74415102  0.14550262     2.10000
Zr182      Zr  0.69915013  0.79161367  0.23182641     1.78800
O183        O  0.68360309  0.72271716  0.08961882    -0.92900
O184        O  0.70952039  0.81772724  0.28611333    -0.40700
O185        O  0.71254869  0.79691018  0.17391442    -0.77400
O186        O  0.75879926  0.79926429  0.22144273    -0.96100
O187        O  0.80643377  0.75391982  0.18537193    -0.89400
O188        O  0.75421043  0.74999302  0.13419309    -0.92200
C189        C  0.65378249  0.73075955  0.27841043     1.01500
C190        C  0.66096328  0.66058849  0.16301029     1.14500
C191        C  0.77391225  0.67428564  0.28789414     1.05200
O192        O  0.79020741  0.77682578  0.29867446    -0.94400
O193        O  0.82651353  0.80641662  0.24288929    -0.90100
O194        O  0.81526704  0.83502736  0.19468805    -0.83300
C195        C  0.83029010  0.83284941  0.22286625     1.11900
O196        O  0.79006654  0.63788501  0.15901724    -0.96300
Zr197      Zr  0.78691818  0.70249547  0.15636026     1.88900
O198        O  0.81517463  0.78948756  0.12000477    -0.73000
O199        O  0.85210534  0.73452968  0.24744811    -0.52300
O200        O  0.84530774  0.68486865  0.16886092    -0.96900
O201        O  0.77309644  0.67159885  0.10505794    -0.54200
O202        O  0.82148381  0.73013954  0.11399950    -0.73500
C203        C  0.82797781  0.76217844  0.10544816     0.98800
O204        O  0.78393243  0.86484617  0.15754664    -0.62300
O205        O  0.63602942  0.76586141  0.15053355    -0.57100
O206        O  0.74284501  0.82749828  0.11790266    -0.93800
O207        O  0.69645732  0.79358249  0.10541845    -0.92200
O208        O  0.64182569  0.81035500  0.21650160    -0.92600
O209        O  0.69617318  0.85621087  0.23159244    -0.91400
C210        C  0.71637797  0.82050921  0.10053477     1.17700
H211        H  0.65657499  0.73516628  0.20654888     0.33600
H212        H  0.76473979  0.82153222  0.23214535     0.44500
H213        H  0.75759879  0.75253990  0.11075676     0.38000
H214        H  0.78728594  0.67806633  0.22276699     0.34500
H215        H  0.68652642  0.82255368  0.29526730     0.26300
H216        H  0.85714158  0.73501538  0.27145299     0.32200
H217        H  0.85855048  0.70734458  0.16919366     0.38100
H218        H  0.64481948  0.82359206  0.19550335     0.32600
H219        H  0.63566705  0.78822447  0.13762584     0.31500
H220        H  0.65972046  0.72966832  0.08493531     0.33100
H221        H  0.79547418  0.66547381  0.09521440     0.32100
H222        H  0.70879477  0.86342502  0.21140550     0.36100
H223        H  0.79302196  0.86818073  0.13489332     0.28800
H224        H  0.69678478  0.62582119  0.25466202     0.33100
H225        H  0.79177470  0.63202028  0.18283722     0.35900
H226        H  0.62209912  0.74900139  0.13737623     0.28500
H227        H  0.76125241  0.87642219  0.15753107     0.41400
H228        H  0.80965572  0.76594327  0.31053999     0.31500
H229        H  0.71831917  0.79794356  0.29978265     0.39100
H230        H  0.76372697  0.69009461  0.09023497     0.30900
H231        H  0.85247368  0.70901342  0.24148024     0.31000
H232        H  0.72903291  0.61849435  0.23238648     0.31200
Zr233      Zr  0.26744556  0.69437007  0.22380243     2.17500
O234        O  0.27253211  0.63001253  0.22908775    -0.51100
O235        O  0.30559553  0.70703363  0.27012863    -0.74300
O236        O  0.32028468  0.67253391  0.20018668    -0.81100
O237        O  0.18017540  0.68741786  0.26901064    -0.82800
O238        O  0.33458321  0.70766082  0.15648375    -0.78500
O239        O  0.23314937  0.66388106  0.26467449    -0.90100
O240        O  0.30827686  0.76646610  0.27859211    -0.76100
O241        O  0.29771058  0.74724225  0.21024469    -0.85600
O242        O  0.23943903  0.74010187  0.25353393    -0.85200
O243        O  0.26206442  0.69927315  0.16475047    -0.72000
O244        O  0.20938325  0.69281950  0.20479550    -0.84100
Zr245      Zr  0.20573919  0.79963909  0.16257669     2.26400
Zr246      Zr  0.29136356  0.75339315  0.15168340     2.06300
Zr247      Zr  0.18163591  0.73956160  0.23425489     2.10000
Zr248      Zr  0.26912560  0.79319538  0.23950872     1.78800
O249        O  0.12642029  0.71221283  0.22276593    -0.92900
O250        O  0.32175766  0.82699833  0.23167296    -0.40700
O251        O  0.21096957  0.79367477  0.22135152    -0.77400
O252        O  0.26412900  0.80098295  0.18097154    -0.96100
O253        O  0.23353172  0.75406885  0.13208969    -0.89400
O254        O  0.17541336  0.74659290  0.17575448    -0.92200
C255        C  0.31703023  0.73455352  0.28551803     1.01500
C256        C  0.20288528  0.66462669  0.27693936     1.14500
C257        C  0.33960700  0.68110080  0.17578794     1.05200
O258        O  0.34407440  0.78777808  0.15580735    -0.94400
O259        O  0.29173007  0.80263152  0.11350303    -0.90100
O260        O  0.24130288  0.83049547  0.12266445    -0.83300
C261        C  0.27028812  0.82750950  0.10807046     1.11900
O262        O  0.21152996  0.63698269  0.14064124    -0.96300
Zr263      Zr  0.20402173  0.70093247  0.14610075     1.88900
O264        O  0.16633042  0.78945856  0.11688349    -0.73000
O265        O  0.30422064  0.72825440  0.09751108    -0.52300
O266        O  0.22568069  0.68337264  0.09198568    -0.96900
O267        O  0.15078913  0.66753185  0.15128724    -0.54200
O268        O  0.16640293  0.73032215  0.10687697    -0.73500
C269        C  0.15612959  0.76205194  0.10076561     0.98800
O270        O  0.19045583  0.86210471  0.15656190    -0.62300
O271        O  0.16720850  0.75518516  0.29113364    -0.57100
O272        O  0.15939317  0.82520080  0.19432634    -0.93800
O273        O  0.14304843  0.78937541  0.23660439    -0.92200
O274        O  0.25049758  0.80900196  0.29503436    -0.92600
O275        O  0.25941994  0.85686289  0.24426036    -0.91400
C276        C  0.14057551  0.81787804  0.21952672     1.17700
H277        H  0.24037416  0.73585506  0.27713097     0.33600
H278        H  0.27483218  0.82344147  0.17556682     0.44500
H279        H  0.15157263  0.74824577  0.16984691     0.38000
H280        H  0.27302899  0.67930794  0.15393724     0.34500
H281        H  0.32729656  0.83644265  0.25390845     0.26300
H282        H  0.28565610  0.73669012  0.08289744     0.32200
H283        H  0.22582466  0.70546808  0.07867338     0.38100
H284        H  0.22641089  0.81636259  0.29234803     0.32600
H285        H  0.18341817  0.74198392  0.30529062     0.31500
H286        H  0.11161227  0.71989377  0.24129336     0.33100
H287        H  0.13258318  0.68571401  0.15141824     0.32100
H288        H  0.23970222  0.86154720  0.22957804     0.36100
H289        H  0.21180470  0.87574864  0.16027587     0.28800
H290        H  0.29479195  0.62576121  0.23997224     0.33100
H291        H  0.22195413  0.62957759  0.16185752     0.35900
H292        H  0.17472499  0.78018974  0.29334779     0.28500
H293        H  0.18502588  0.86543291  0.13282756     0.41400
H294        H  0.36198348  0.77050343  0.16193892     0.31500
H295        H  0.33947929  0.80884533  0.22747351     0.39100
H296        H  0.15102133  0.65810583  0.17417168     0.30900
H297        H  0.32480106  0.74129360  0.08986958     0.31000
H298        H  0.27528902  0.62098597  0.20622494     0.31200
N299        N  0.29651443  0.93885620  0.94600544    -0.36400
N300        N  0.29347007  0.99491918  0.99590883    -0.56900
N301        N  0.28539658  0.04794698  0.94502754    -0.36400
N302        N  0.28577666  0.99193481  0.89500782    -0.56900
C303        C  0.29230492  0.91913729  0.97369509     0.27200
C304        C  0.28991748  0.91730852  0.91998571     0.27200
C305        C  0.27748962  0.06736442  0.97213234     0.27200
C306        C  0.27451029  0.06633327  0.91837210     0.27200
C307        C  0.30002779  0.96704352  0.01577485     0.35800
C308        C  0.29556289  0.02411707  0.01511515     0.35800
C309        C  0.28938374  0.96312987  0.87530062     0.35800
C310        C  0.28475178  0.02052388  0.87477310     0.35800
C311        C  0.28470171  0.88430442  0.96509940    -0.21700
C312        C  0.28330539  0.88312157  0.93125192    -0.21700
C313        C  0.26179856  0.09867503  0.96256325    -0.21700
C314        C  0.26008890  0.09813078  0.92859273    -0.21700
C315        C  0.30676868  0.97856563  0.04771517    -0.22700
C316        C  0.30418055  0.01483410  0.04724160    -0.22700
C317        C  0.29015384  0.97342122  0.84238645    -0.22700
C318        C  0.28741211  0.00976659  0.84204602    -0.22700
C319        C  0.29530136  0.93134359  0.00660943    -0.18100
C320        C  0.28918759  0.92746069  0.88632297    -0.18100
C321        C  0.27838164  0.05583204  0.88502170    -0.18100
C322        C  0.28523202  0.05825748  0.00517953    -0.18100
H323        H  0.28028999  0.86199573  0.98149673     0.14800
H324        H  0.27743396  0.85975435  0.91669022     0.14800
H325        H  0.25275791  0.11985573  0.97838771     0.14800
H326        H  0.24935764  0.11881044  0.91321219     0.14800
H327        H  0.31176103  0.96247966  0.06937083     0.13100
H328        H  0.30672654  0.03220229  0.06845432     0.13100
H329        H  0.29199125  0.95645944  0.82083690     0.13100
H330        H  0.28655239  0.02628691  0.82012834     0.13100
H331        H  0.30534528  0.96484225  0.94488240     0.26400
H332        H  0.30056249  0.02539967  0.94439150     0.26400
N333        N  0.99692955  0.26819698  0.99454192    -0.36400
N334        N  0.94484415  0.25958537  0.94300911    -0.56900
N335        N  0.99754323  0.26546740  0.89232086    -0.36400
N336        N  0.04947774  0.27090942  0.94385396    -0.56900
C337        C  0.96960492  0.25814248  0.01297062     0.27200
C338        C  0.02532933  0.26316740  0.01320301     0.27200
C339        C  0.97053148  0.25627919  0.87323123     0.27200
C340        C  0.02611354  0.26100537  0.87391623     0.27200
C341        C  0.92415811  0.26279647  0.96975383     0.35800
C342        C  0.92455602  0.26170714  0.91590000     0.35800
C343        C  0.06892112  0.27854329  0.97058689     0.35800
C344        C  0.06927051  0.27697046  0.91699295     0.35800
C345        C  0.98073418  0.24689265  0.04381309    -0.21700
C346        C  0.01585674  0.24995310  0.04392177    -0.21700
C347        C  0.98204133  0.24644980  0.84206575    -0.21700
C348        C  0.01710275  0.24929289  0.84254117    -0.21700
C349        C  0.89053410  0.26638154  0.95952935    -0.22700
C350        C  0.89078155  0.26558940  0.92551472    -0.22700
C351        C  0.10118278  0.28952269  0.96064288    -0.22700
C352        C  0.10141351  0.28850923  0.92670792    -0.22700
C353        C  0.93481204  0.26041375  0.00329787    -0.18100
C354        C  0.05936714  0.27164026  0.00372077    -0.18100
C355        C  0.05989968  0.26914666  0.88401507    -0.18100
C356        C  0.93571179  0.25835231  0.88260303    -0.18100
H357        H  0.96513880  0.23751645  0.06418947     0.14800
H358        H  0.03248457  0.24350668  0.06443104     0.14800
H359        H  0.96679773  0.23829203  0.82104353     0.14800
H360        H  0.03398088  0.24381011  0.82194355     0.14800
H361        H  0.86806690  0.26896888  0.97496448     0.13100
H362        H  0.86857142  0.26745076  0.90967855     0.13100
H363        H  0.12260843  0.29664208  0.97624036     0.13100
H364        H  0.12304377  0.29478242  0.91101435     0.13100
H365        H  0.99584666  0.28125840  0.97191549     0.26400
H366        H  0.99627134  0.27768260  0.91528764     0.26400
N367        N  0.68576162  0.99864255  0.99821410    -0.36400
N368        N  0.68856585  0.94421564  0.94674041    -0.56900
N369        N  0.68866464  0.99912157  0.89533115    -0.36400
N370        N  0.68949491  0.05343226  0.94668742    -0.56900
C371        C  0.69180570  0.96930284  0.01686350     0.27200
C372        C  0.69413481  0.02755591  0.01668844     0.27200
C373        C  0.69553521  0.97028311  0.87648859     0.27200
C374        C  0.69426903  0.02830823  0.87642015     0.27200
C375        C  0.68412168  0.92273206  0.97327933     0.35800
C376        C  0.68769926  0.92302048  0.91969940     0.35800
C377        C  0.68599463  0.07449710  0.97357289     0.35800
C378        C  0.68569649  0.07467274  0.91992033     0.35800
C379        C  0.70319896  0.97977894  0.04786330    -0.21700
C380        C  0.70475997  0.01639202  0.04771975    -0.21700
C381        C  0.70435130  0.98130995  0.84479574    -0.21700
C382        C  0.70366218  0.01784565  0.84479234    -0.21700
C383        C  0.68046400  0.88776557  0.96296551    -0.22700
C384        C  0.68290817  0.88793291  0.92913939    -0.22700
C385        C  0.67961283  0.10916142  0.96379982    -0.22700
C386        C  0.67961060  0.10930088  0.92986859    -0.22700
C387        C  0.68752853  0.93330988  0.00677226    -0.18100
C388        C  0.69181849  0.06377710  0.00667346    -0.18100
C389        C  0.69075291  0.06414864  0.88667127    -0.18100
C390        C  0.69344619  0.93424306  0.88670854    -0.18100
H391        H  0.71014450  0.96279265  0.06838381     0.14800
H392        H  0.71303919  0.03290065  0.06814543     0.14800
H393        H  0.71080266  0.96478936  0.82379768     0.14800
H394        H  0.70949644  0.03475440  0.82383762     0.14800
H395        H  0.67739866  0.86435875  0.97828017     0.13100
H396        H  0.68184681  0.86471600  0.91337025     0.13100
H397        H  0.67625943  0.13218838  0.97949228     0.13100
H398        H  0.67621434  0.13241876  0.91428629     0.13100
H399        H  0.67409677  0.99896177  0.97515975     0.26400
H400        H  0.67840241  0.99885120  0.91895874     0.26400
N401        N  0.04095180  0.77541244  0.93969576    -0.36400
N402        N  0.98860449  0.78366499  0.88891588    -0.56900
N403        N  0.93667577  0.78536879  0.94051283    -0.36400
N404        N  0.98946998  0.78115758  0.99129071    -0.56900
C405        C  0.06064655  0.78105190  0.91270620     0.27200
C406        C  0.06105789  0.78004913  0.96654423     0.27200
C407        C  0.91696871  0.79202028  0.91374380     0.27200
C408        C  0.91756354  0.79171990  0.96778247     0.27200
C409        C  0.01560920  0.77543000  0.86949300     0.35800
C410        C  0.96043845  0.78029603  0.86975700     0.35800
C411        C  0.01665160  0.77203009  0.01008111     0.35800
C412        C  0.96151194  0.77759365  0.01071872     0.35800
C413        C  0.09367335  0.78944392  0.92244895    -0.21700
C414        C  0.09396080  0.78872666  0.95646873    -0.21700
C415        C  0.88482799  0.80272489  0.92411348    -0.21700
C416        C  0.88517156  0.80244041  0.95820334    -0.21700
C417        C  0.00463443  0.76769959  0.83769065    -0.22700
C418        C  0.96973212  0.77078616  0.83784843    -0.22700
C419        C  0.00602052  0.76332846  0.04178471    -0.22700
C420        C  0.97110826  0.76677531  0.04218733    -0.22700
C421        C  0.05021420  0.77609668  0.87960585    -0.18100
C422        C  0.05112228  0.77381777  0.99967265    -0.18100
C423        C  0.92750204  0.78487896  0.00088313    -0.18100
C424        C  0.92640005  0.78613866  0.88033759    -0.18100
H425        H  0.11547689  0.79477907  0.90667452     0.14800
H426        H  0.11608283  0.79335377  0.97195118     0.14800
H427        H  0.86312644  0.80927579  0.90872268     0.14800
H428        H  0.86374531  0.80864268  0.97411175     0.14800
H429        H  0.02012807  0.76031286  0.81660330     0.13100
H430        H  0.95308657  0.76612546  0.81690645     0.13100
H431        H  0.02178370  0.75554251  0.06252838     0.13100
H432        H  0.95470438  0.76201014  0.06332619     0.13100
H433        H  0.01659945  0.76438219  0.93965796     0.26400
H434        H  0.96015860  0.77282926  0.94016725     0.26400
Zr435      Zr  0.21017760  0.80270967  0.72242136     2.17500
O436        O  0.21069100  0.86648202  0.73305501    -0.51100
O437        O  0.16347224  0.79162308  0.76107840    -0.74300
O438        O  0.16612418  0.83456573  0.69210294    -0.81100
O439        O  0.28218666  0.79264697  0.78553397    -0.82800
O440        O  0.16020155  0.80548709  0.64338964    -0.78500
O441        O  0.23658450  0.82652668  0.77113622    -0.90100
O442        O  0.15801012  0.73185016  0.76595019    -0.76100
O443        O  0.17920882  0.75543322  0.69731200    -0.85600
O444        O  0.22639078  0.75062666  0.75209602    -0.85200
O445        O  0.22878573  0.80366309  0.66572752    -0.72000
O446        O  0.27119745  0.79772997  0.71664591    -0.84100
Zr447      Zr  0.27474549  0.69720243  0.66412533     2.26400
Zr448      Zr  0.19860028  0.75486434  0.64116423     2.06300
Zr449      Zr  0.28681835  0.74472148  0.74565494     2.10000
Zr450      Zr  0.19589909  0.70343838  0.72651601     1.78800
O451        O  0.34347446  0.76760399  0.75898167    -0.92900
O452        O  0.13858200  0.68624820  0.70913098    -0.40700
O453        O  0.25656354  0.69645673  0.72084584    -0.77400
O454        O  0.21372121  0.70155636  0.67005542    -0.96100
O455        O  0.25910473  0.74921009  0.63443173    -0.89400
O456        O  0.30575494  0.74441809  0.68933824    -0.92200
C457        C  0.14998294  0.76374424  0.77404926     1.01500
C458        C  0.26197273  0.81902658  0.78971385     1.14500
C459        C  0.15268046  0.83087529  0.66337119     1.05200
O460        O  0.14127946  0.73347201  0.62857594    -0.94400
O461        O  0.20136393  0.70704133  0.60085701    -0.90100
O462        O  0.24796646  0.67452998  0.61445921    -0.83300
C463        C  0.22184527  0.68094332  0.59630756     1.11900
O464        O  0.29414199  0.86040473  0.66962860    -0.96300
Zr465      Zr  0.28938662  0.79655245  0.65998532     1.88900
O466        O  0.32004751  0.70845697  0.62411760    -0.73000
O467        O  0.20383271  0.78294038  0.58704190    -0.52300
O468        O  0.27742899  0.82888720  0.60906313    -0.96900
O469        O  0.34682423  0.81663981  0.67454961    -0.54200
O470        O  0.32579540  0.76814134  0.61881985    -0.73500
C471        C  0.33326744  0.73611577  0.61050168     0.98800
O472        O  0.27895433  0.63291224  0.65892540    -0.62300
O473        O  0.28023789  0.71533308  0.79905219    -0.57100
O474        O  0.31834523  0.66574222  0.69532435    -0.93800
O475        O  0.32545972  0.69385560  0.74446099    -0.92200
O476        O  0.20221432  0.66974484  0.77761713    -0.92600
O477        O  0.19223477  0.63961202  0.71692400    -0.91400
C478        C  0.33243458  0.66877803  0.72389475     1.17700
H479        H  0.22085813  0.75244602  0.77527709     0.33600
H480        H  0.20247661  0.68109611  0.66017985     0.44500
H481        H  0.32982220  0.74037681  0.68793136     0.38000
H482        H  0.22253019  0.82598417  0.65527796     0.34500
H483        H  0.12853170  0.67436532  0.72875260     0.26300
H484        H  0.18274002  0.77590868  0.57517315     0.32200
H485        H  0.27064760  0.81034487  0.59295695     0.38100
H486        H  0.22472631  0.65803382  0.77566437     0.32600
H487        H  0.27821028  0.68973512  0.79375042     0.31500
H488        H  0.34577305  0.76424495  0.78318262     0.33100
H489        H  0.35842308  0.82081500  0.65309458     0.32100
H490        H  0.21622935  0.63200140  0.71395133     0.36100
H491        H  0.25518797  0.62407241  0.65677341     0.28800
H492        H  0.18769439  0.87198929  0.74181554     0.33100
H493        H  0.30886489  0.86979421  0.65166404     0.35900
H494        H  0.30287496  0.71770193  0.80976602     0.28500
H495        H  0.28969024  0.62854589  0.63709881     0.41400
H496        H  0.12846264  0.73591045  0.64957717     0.31500
H497        H  0.12589115  0.70886141  0.70731454     0.39100
H498        H  0.35846091  0.79567717  0.68398934     0.30900
H499        H  0.20112476  0.80870186  0.59119789     0.31000
H500        H  0.21188018  0.87812901  0.71109743     0.31200
N501        N  0.99391966  0.94823705  0.61261733    -0.36400
N502        N  0.94768324  0.00755003  0.62542701    -0.56900
N503        N  0.00415702  0.05787501  0.62501597    -0.36400
N504        N  0.05030765  0.99877745  0.61421995    -0.56900
C505        C  0.96513129  0.93068086  0.62152807     0.27200
C506        C  0.02035146  0.92577652  0.61764232     0.27200
C507        C  0.97928175  0.07778101  0.63906118     0.27200
C508        C  0.03448679  0.07339252  0.63245341     0.27200
C509        C  0.92468521  0.98150682  0.61936940     0.35800
C510        C  0.92993340  0.03823170  0.62657890     0.35800
C511        C  0.06770635  0.96870200  0.60743471     0.35800
C512        C  0.07299654  0.02580541  0.61162305     0.35800
C513        C  0.97315993  0.89610825  0.63050100    -0.21700
C514        C  0.00800923  0.89310162  0.62828637    -0.21700
C515        C  0.99390619  0.10677598  0.65486876    -0.21700
C516        C  0.02872882  0.10401619  0.65071025    -0.21700
C517        C  0.89226083  0.99571834  0.61612019    -0.22700
C518        C  0.89561646  0.03175558  0.62046168    -0.22700
C519        C  0.10141543  0.97667026  0.59997123    -0.22700
C520        C  0.10473617  0.01285300  0.60239787    -0.22700
C521        C  0.93178019  0.94493476  0.62200348    -0.18100
C522        C  0.05537929  0.93408037  0.61370866    -0.18100
C523        C  0.06719404  0.06069224  0.62318125    -0.18100
C524        C  0.94368664  0.07111384  0.63701558    -0.18100
H525        H  0.95582500  0.87536495  0.63860897     0.14800
H526        H  0.02259270  0.86960875  0.63431730     0.14800
H527        H  0.98085869  0.12762208  0.66824667     0.14800
H528        H  0.04765783  0.12233777  0.66032708     0.14800
H529        H  0.86852514  0.98142910  0.61231906     0.13100
H530        H  0.87496662  0.05079359  0.62054549     0.13100
H531        H  0.12181874  0.95812169  0.59488116     0.13100
H532        H  0.12831155  0.02771164  0.59962562     0.13100
H533        H  0.99514495  0.97353783  0.60234315     0.26400
H534        H  0.00050904  0.03658954  0.60898517     0.26400
Zr535      Zr  0.28485402  0.29458432  0.66218087     2.17500
O536        O  0.33865369  0.32446856  0.64863251    -0.51100
O537        O  0.25946828  0.33585054  0.62281592    -0.74300
O538        O  0.31317872  0.27089745  0.61342780    -0.81100
O539        O  0.29095781  0.33652554  0.74778684    -0.82800
O540        O  0.29400783  0.21478454  0.60344743    -0.78500
O541        O  0.31181715  0.34061936  0.69534420    -0.90100
O542        O  0.20234009  0.32605768  0.62075249    -0.76100
O543        O  0.23894708  0.26452597  0.63579930    -0.85600
O544        O  0.23463638  0.31530628  0.68937251    -0.85200
O545        O  0.29629493  0.23227103  0.67020939    -0.72000
O546        O  0.29086210  0.27746361  0.71910099    -0.84100
Zr547      Zr  0.20359478  0.20516806  0.72765820     2.26400
Zr548      Zr  0.24908086  0.20238686  0.64409393     2.06300
Zr549      Zr  0.24027195  0.29774327  0.74626694     2.10000
Zr550      Zr  0.18880811  0.28405050  0.66357725     1.78800
O551        O  0.25947444  0.29959802  0.80354805    -0.92900
O552        O  0.15974626  0.26273741  0.61408789    -0.40700
O553        O  0.19328093  0.26754167  0.72045494    -0.77400
O554        O  0.19749367  0.22207560  0.67061026    -0.96100
O555        O  0.25403553  0.18452408  0.70093895    -0.89400
O556        O  0.24950090  0.23537757  0.75453680    -0.92200
C557        C  0.22966007  0.34124433  0.61060067     1.01500
C558        C  0.31181792  0.34926591  0.72605033     1.14500
C559        C  0.31336751  0.24170655  0.59712617     1.05200
O560        O  0.22410945  0.20019647  0.58895887    -0.94400
O561        O  0.20561178  0.15561900  0.64435184    -0.90100
O562        O  0.17954323  0.15683298  0.69473165    -0.83300
C563        C  0.18313029  0.14453476  0.66528059     1.11900
O564        O  0.36082252  0.22602213  0.71993308    -0.96300
Zr565      Zr  0.29971988  0.21526985  0.72710960     1.88900
O566        O  0.22664275  0.16542937  0.76946011    -0.73000
O567        O  0.27993379  0.14671734  0.63749735    -0.52300
O568        O  0.32632658  0.16174423  0.70520183    -0.96900
O569        O  0.32983329  0.23178662  0.77766759    -0.54200
O570        O  0.28412552  0.17077312  0.76749527    -0.73500
C571        C  0.25663163  0.15735449  0.77952811     0.98800
O572        O  0.15276211  0.17148284  0.74368638    -0.62300
O573        O  0.21639746  0.35734250  0.75037129    -0.57100
O574        O  0.16878332  0.23451420  0.76930918    -0.93800
O575        O  0.19062113  0.28860428  0.78281999    -0.92200
O576        O  0.15865347  0.33716111  0.68133684    -0.92600
O577        O  0.12814671  0.27286032  0.67228849    -0.91400
C578        C  0.16855367  0.26332936  0.78627922     1.17700
H579        H  0.23228193  0.34082808  0.68713529     0.33600
H580        H  0.17734500  0.21159374  0.66076057     0.44500
H581        H  0.24994413  0.23039042  0.77799366     0.38000
H582        H  0.31771758  0.22568544  0.66049284     0.34500
H583        H  0.14407171  0.28215743  0.60781261     0.26300
H584        H  0.27258642  0.13183214  0.65644559     0.32200
H585        H  0.33439180  0.14859391  0.72491657     0.38100
H586        H  0.16120095  0.33735824  0.70571679     0.32600
H587        H  0.19972233  0.35608036  0.76875746     0.31500
H588        H  0.25530175  0.32437211  0.81068469     0.33100
H589        H  0.34080359  0.20961648  0.78538919     0.32100
H590        H  0.12682690  0.26161904  0.69442066     0.36100
H591        H  0.15411112  0.16842413  0.76798683     0.28800
H592        H  0.33614267  0.33332377  0.62568235     0.33100
H593        H  0.37245075  0.20550096  0.73025194     0.35900
H594        H  0.23514900  0.37236393  0.75909833     0.28500
H595        H  0.13305551  0.18742079  0.73996081     0.41400
H596        H  0.23210386  0.17743438  0.57949144     0.31500
H597        H  0.17750554  0.26276024  0.59662605     0.39100
H598        H  0.31160736  0.23630808  0.79411920     0.30900
H599        H  0.26937530  0.13523563  0.61795482     0.31000
H600        H  0.35621186  0.30563764  0.64740682     0.31200
Zr601      Zr  0.70705640  0.29449891  0.65660763     2.17500
O602        O  0.68613982  0.35389047  0.64355060    -0.51100
O603        O  0.66581342  0.27538681  0.61420047    -0.74300
O604        O  0.73985737  0.32411675  0.61272729    -0.81100
O605        O  0.65265517  0.29457544  0.73667117    -0.82800
O606        O  0.79185464  0.29893653  0.60540767    -0.78500
O607        O  0.66248381  0.32382813  0.68839016    -0.90100
O608        O  0.66529690  0.21529594  0.61282958    -0.76100
O609        O  0.73410022  0.24572151  0.63006480    -0.85600
O610        O  0.67979354  0.24303473  0.67910951    -0.85200
O611        O  0.76655648  0.30018404  0.67146632    -0.72000
O612        O  0.71724667  0.29561354  0.71540770    -0.84100
Zr613      Zr  0.77812200  0.19919220  0.72622725     2.26400
Zr614      Zr  0.79333913  0.25017903  0.64539208     2.06300
Zr615      Zr  0.69085920  0.24321548  0.73759548     2.10000
Zr616      Zr  0.70735505  0.19435888  0.65314305     1.78800
O617        O  0.67715988  0.26479923  0.79281186    -0.92900
O618        O  0.72551454  0.16834543  0.60079207    -0.40700
O619        O  0.71845636  0.19389568  0.71176636    -0.77400
O620        O  0.76683019  0.19759996  0.66744684    -0.96100
O621        O  0.80425056  0.25107900  0.70381336    -0.89400
O622        O  0.75011567  0.24767565  0.75251507    -0.92200
C623        C  0.65452928  0.24568395  0.60269734     1.01500
C624        C  0.64695930  0.32015453  0.71625709     1.14500
C625        C  0.76922217  0.32240737  0.59840370     1.05200
O626        O  0.79941035  0.22345871  0.59085666    -0.94400
O627        O  0.83703889  0.20445548  0.64865435    -0.90100
O628        O  0.82823417  0.17578028  0.69740970    -0.83300
C629        C  0.84454170  0.18038809  0.66996029     1.11900
O630        O  0.76845958  0.36347609  0.72500193    -0.96300
Zr631      Zr  0.77643614  0.29944698  0.73002984     1.88900
O632        O  0.82057997  0.21855434  0.76787296    -0.73000
O633        O  0.84972890  0.27783616  0.64571637    -0.52300
O634        O  0.83021224  0.32867517  0.71592745    -0.96900
O635        O  0.75750678  0.32703707  0.78142568    -0.54200
O636        O  0.81822786  0.27863872  0.77024262    -0.73500
C637        C  0.83070606  0.24871969  0.77960855     0.98800
O638        O  0.79081689  0.13606413  0.73186084    -0.62300
O639        O  0.63599269  0.21264226  0.73330260    -0.57100
O640        O  0.74871759  0.17137790  0.77345701    -0.93800
O641        O  0.69532473  0.19444305  0.77787478    -0.92200
O642        O  0.65519485  0.16207379  0.66715591    -0.92600
O643        O  0.71402107  0.13019106  0.65754542    -0.91400
C644        C  0.71886918  0.17264551  0.78691480     1.17700
H645        H  0.65522274  0.24327999  0.67460997     0.33600
H646        H  0.77730364  0.17664417  0.65782175     0.44500
H647        H  0.75292918  0.24658590  0.77621961     0.38000
H648        H  0.77609726  0.32222315  0.66358304     0.34500
H649        H  0.72557220  0.18836887  0.58488576     0.26300
H650        H  0.85859643  0.27444208  0.62298187     0.32200
H651        H  0.84733073  0.30939040  0.71540596     0.38100
H652        H  0.63675746  0.17997697  0.66627369     0.32600
H653        H  0.62814978  0.20998499  0.75648117     0.31500
H654        H  0.69941746  0.27170738  0.80253898     0.33100
H655        H  0.75879655  0.30803795  0.79832570     0.32100
H656        H  0.73593780  0.12687550  0.66933925     0.36100
H657        H  0.79983323  0.13301890  0.75455888     0.28800
H658        H  0.68080924  0.35364022  0.61959455     0.33100
H659        H  0.78561242  0.37442216  0.73989135     0.35900
H660        H  0.62022602  0.23032800  0.72363046     0.28500
H661        H  0.76839742  0.12376396  0.73183821     0.41400
H662        H  0.82211974  0.23153862  0.58299839     0.31500
H663        H  0.74996851  0.16261408  0.60389183     0.39100
H664        H  0.73272235  0.33099729  0.77828015     0.30900
H665        H  0.84534516  0.30365676  0.64743690     0.31000
H666        H  0.70605186  0.37003414  0.64583643     0.31200
Zr667      Zr  0.71121903  0.70295180  0.65842999     2.17500
O668        O  0.70916182  0.63866502  0.65062039    -0.51100
O669        O  0.66791329  0.71098517  0.61608232    -0.74300
O670        O  0.66559599  0.67377575  0.68827880    -0.81100
O671        O  0.78982132  0.70378322  0.60364200    -0.82800
O672        O  0.65269914  0.70435280  0.73486986    -0.78500
O673        O  0.74105652  0.67299906  0.61452431    -0.90100
O674        O  0.66249665  0.77031218  0.60821078    -0.76100
O675        O  0.67813153  0.75206516  0.67700275    -0.85600
O676        O  0.73202328  0.75213108  0.62710519    -0.85200
O677        O  0.72299324  0.70673172  0.71666129    -0.72000
O678        O  0.77118341  0.70680594  0.67032471    -0.84100
Zr679      Zr  0.77093579  0.81222523  0.71695033     2.26400
Zr680      Zr  0.69047456  0.75701520  0.73508382     2.06300
Zr681      Zr  0.79165731  0.75699758  0.63972714     2.10000
Zr682      Zr  0.70001770  0.80143498  0.64656317     1.78800
O683        O  0.84991040  0.73478173  0.64367073    -0.92900
O684        O  0.64494370  0.82842907  0.65863381    -0.40700
O685        O  0.75960432  0.80721546  0.65867689    -0.77400
O686        O  0.71074381  0.80806750  0.70481718    -0.96100
O687        O  0.75023267  0.76254119  0.74754779    -0.89400
O688        O  0.80369651  0.76304336  0.69775491    -0.92200
C689        C  0.65485693  0.73788889  0.60141634     1.01500
C690        C  0.76899543  0.67754594  0.59860992     1.14500
C691        C  0.64885315  0.67758776  0.71526047     1.05200
O692        O  0.63463931  0.78526500  0.73510478    -0.94400
O693        O  0.69392270  0.80474551  0.77650746    -0.90100
O694        O  0.74210443  0.83647489  0.76536355    -0.83300
C695        C  0.71511089  0.83022552  0.78258506     1.11900
O696        O  0.78179574  0.64881739  0.73250384    -0.96300
Zr697      Zr  0.78258109  0.71350292  0.72824407     1.88900
O698        O  0.81470133  0.80433903  0.75934638    -0.73000
O699        O  0.68115925  0.73077643  0.78947972    -0.52300
O700        O  0.76854997  0.69319398  0.78395331    -0.96900
O701        O  0.83765721  0.68748312  0.71415691    -0.54200
O702        O  0.82030386  0.74484885  0.76579141    -0.73500
C703        C  0.82769799  0.77704432  0.77355856     0.98800
O704        O  0.77547915  0.87683025  0.71978605    -0.62300
O705        O  0.80162542  0.77596247  0.58284498    -0.57100
O706        O  0.81517879  0.84277438  0.68546160    -0.93800
O707        O  0.82418807  0.81304813  0.63726195    -0.92200
O708        O  0.71401937  0.82508652  0.59205730    -0.92600
O709        O  0.70082252  0.86607947  0.64368377    -0.91400
C710        C  0.82957707  0.83939969  0.65701951     1.17700
H711        H  0.72873554  0.74849354  0.60370859     0.33600
H712        H  0.69922837  0.82921809  0.71247648     0.44500
H713        H  0.82770708  0.76692839  0.70143462     0.38000
H714        H  0.71569509  0.68547660  0.72785339     0.34500
H715        H  0.63133904  0.82524340  0.63819696     0.26300
H716        H  0.70104883  0.73842480  0.80287351     0.32200
H717        H  0.79076881  0.68743250  0.79430742     0.38100
H718        H  0.73890634  0.82120931  0.58965533     0.32600
H719        H  0.82190141  0.76237637  0.57558595     0.31500
H720        H  0.86425917  0.75609130  0.64759956     0.33100
H721        H  0.85355637  0.70788312  0.71197742     0.32100
H722        H  0.72394571  0.87293342  0.65137525     0.36100
H723        H  0.75168552  0.88559046  0.72101107     0.28800
H724        H  0.68561087  0.63301349  0.64332259     0.33100
H725        H  0.80015411  0.64262190  0.74830905     0.35900
H726        H  0.78241946  0.76580264  0.56996957     0.28500
H727        H  0.78549634  0.88209762  0.74175229     0.41400
H728        H  0.62175676  0.77305092  0.75291808     0.31500
H729        H  0.63406189  0.81231195  0.67490651     0.39100
H730        H  0.83477644  0.67854905  0.69128068     0.30900
H731        H  0.66155248  0.74390895  0.79888353     0.31000
H732        H  0.71121650  0.62812416  0.67299583     0.31200
N733        N  0.49032606  0.44384337  0.75912528    -0.36400
N734        N  0.44218530  0.50106737  0.76513200    -0.56900
N735        N  0.49629171  0.55384449  0.75751601    -0.36400
N736        N  0.54474604  0.49686877  0.74896324    -0.56900
C737        C  0.46074103  0.42564157  0.75440101     0.27200
C738        C  0.51593460  0.42329721  0.74760347     0.27200
C739        C  0.46848624  0.57430670  0.75273809     0.27200
C740        C  0.52323941  0.57185460  0.74489762     0.27200
C741        C  0.42083591  0.47349034  0.77118328     0.35800
C742        C  0.42417300  0.53090876  0.77105839     0.35800
C743        C  0.56377560  0.46719614  0.75162658     0.35800
C744        C  0.56678002  0.52460897  0.75023997     0.35800
C745        C  0.46784864  0.39286676  0.74040333    -0.21700
C746        C  0.50268042  0.39116886  0.73656749    -0.21700
C747        C  0.47802245  0.60603586  0.73772451    -0.21700
C748        C  0.51262281  0.60451040  0.73282780    -0.21700
C749        C  0.38933433  0.48593024  0.78161745    -0.22700
C750        C  0.39143779  0.52230485  0.78148525    -0.22700
C751        C  0.59807169  0.47613105  0.75461325    -0.22700
C752        C  0.59995570  0.51260672  0.75377470    -0.22700
C753        C  0.42754222  0.43783146  0.76235877    -0.18100
C754        C  0.55104439  0.43231575  0.74749210    -0.18100
C755        C  0.55741340  0.56032917  0.74526827    -0.18100
C756        C  0.43472139  0.56534231  0.76172898    -0.18100
H757        H  0.44985757  0.37229250  0.73343592     0.14800
H758        H  0.51657982  0.36896011  0.72626877     0.14800
H759        H  0.46176245  0.62803629  0.73088918     0.14800
H760        H  0.52813107  0.62506413  0.72147420     0.14800
H761        H  0.36669259  0.47041374  0.78717854     0.13100
H762        H  0.37073637  0.54040600  0.78683341     0.13100
H763        H  0.61954216  0.45820184  0.75637683     0.13100
H764        H  0.62308151  0.52844860  0.75482829     0.13100
H765        H  0.49340099  0.46772311  0.77170136     0.26400
H766        H  0.49725373  0.53040742  0.77110837     0.26400
N767        N  0.43576096  0.50664002  0.14485918    -0.36400
N768        N  0.49609682  0.55270418  0.13979126    -0.56900
N769        N  0.53879944  0.48958089  0.13671423    -0.36400
N770        N  0.47781236  0.44325601  0.13962447    -0.56900
C771        C  0.42060118  0.53869995  0.14147391     0.27200
C772        C  0.41117152  0.48154651  0.14096285     0.27200
C773        C  0.56363806  0.51477453  0.13632636     0.27200
C774        C  0.55413298  0.45748957  0.13646098     0.27200
C775        C  0.47231667  0.57795464  0.14496892     0.35800
C776        C  0.52683028  0.56885845  0.14266906     0.35800
C777        C  0.44743987  0.42732069  0.14586826     0.35800
C778        C  0.50213789  0.41834933  0.14405658     0.35800
C779        C  0.38584141  0.53389368  0.13650597    -0.21700
C780        C  0.37999960  0.49799640  0.13565029    -0.21700
C781        C  0.59523204  0.49845895  0.13424878    -0.21700
C782        C  0.58929564  0.46242999  0.13447746    -0.21700
C783        C  0.48793698  0.61057614  0.15026333    -0.22700
C784        C  0.52241730  0.60482092  0.14892703    -0.22700
C785        C  0.45241631  0.39189300  0.15375567    -0.22700
C786        C  0.48699055  0.38613563  0.15236585    -0.22700
C787        C  0.43664618  0.57231509  0.14464197    -0.18100
C788        C  0.41527043  0.44427204  0.14437568    -0.18100
C789        C  0.53789674  0.42404170  0.14151878    -0.18100
C790        C  0.55898221  0.55187998  0.14039936    -0.18100
H791        H  0.36644630  0.55408306  0.13397891     0.14800
H792        H  0.35533114  0.48548471  0.13205782     0.14800
H793        H  0.62011309  0.51112952  0.13400981     0.14800
H794        H  0.60887671  0.44221763  0.13455148     0.14800
H795        H  0.47580935  0.63588781  0.15488237     0.13100
H796        H  0.54195114  0.62487558  0.15259750     0.13100
H797        H  0.43322825  0.37229689  0.16024570     0.13100
H798        H  0.49955338  0.36115967  0.15745214     0.13100
H799        H  0.46027435  0.50239033  0.15353609     0.26400
H800        H  0.51299750  0.49382951  0.13921398     0.26400
N801        N  0.80243309  0.50007239  0.49481661    -0.36400
N802        N  0.80318913  0.44588711  0.44269340    -0.56900
N803        N  0.80943559  0.50048886  0.39233909    -0.36400
N804        N  0.80756846  0.55477119  0.44468734    -0.56900
C805        C  0.79153784  0.47120295  0.51209832     0.27200
C806        C  0.79588373  0.52931486  0.51345063     0.27200
C807        C  0.80195344  0.47185975  0.37329775     0.27200
C808        C  0.80196753  0.52977962  0.37432723     0.27200
C809        C  0.80292878  0.42436591  0.46949982     0.35800
C810        C  0.80846416  0.42478448  0.41607228     0.35800
C811        C  0.80999908  0.57602632  0.47162757     0.35800
C812        C  0.81112915  0.57607013  0.41793591     0.35800
C813        C  0.77877730  0.48221065  0.54241336    -0.21700
C814        C  0.78148163  0.51869525  0.54326562    -0.21700
C815        C  0.79061356  0.48314027  0.34253580    -0.21700
C816        C  0.79056936  0.51962636  0.34320245    -0.21700
C817        C  0.80831881  0.38945846  0.45980229    -0.22700
C818        C  0.81184000  0.38975081  0.42602566    -0.22700
C819        C  0.81529631  0.61094492  0.46181572    -0.22700
C820        C  0.81604059  0.61095507  0.42790272    -0.22700
C821        C  0.79427838  0.43507538  0.50205367    -0.18100
C822        C  0.80276691  0.56530677  0.50453273    -0.18100
C823        C  0.80567717  0.56550805  0.38477211    -0.18100
C824        C  0.80505248  0.43579202  0.38279684    -0.18100
H825        H  0.76867012  0.46569628  0.56207477     0.14800
H826        H  0.77363644  0.53542705  0.56364763     0.14800
H827        H  0.78280531  0.46682219  0.32180271     0.14800
H828        H  0.78281528  0.53671600  0.32303257     0.14800
H829        H  0.80845196  0.36595757  0.47523703     0.13100
H830        H  0.81503506  0.36661000  0.41044419     0.13100
H831        H  0.81690337  0.63430511  0.47734025     0.13100
H832        H  0.81855004  0.63424096  0.41233526     0.13100
H833        H  0.81628761  0.49956113  0.47290506     0.26400
H834        H  0.82128886  0.50010979  0.41533368     0.26400
N835        N  0.54063716  0.71741003  0.43818540    -0.36400
N836        N  0.49166557  0.71814989  0.49153574    -0.56900
N837        N  0.43670196  0.71596320  0.44276396    -0.36400
N838        N  0.48576510  0.71153451  0.38936502    -0.56900
C839        C  0.56158578  0.71242799  0.46442547     0.27200
C840        C  0.55832763  0.70849025  0.41067593     0.27200
C841        C  0.41894629  0.71046098  0.47099793     0.27200
C842        C  0.41582624  0.70746756  0.41727828     0.27200
C843        C  0.52006986  0.72615805  0.50904597     0.35800
C844        C  0.46485955  0.72525087  0.51147501     0.35800
C845        C  0.51247580  0.71817520  0.36901287     0.35800
C846        C  0.45714288  0.71751850  0.37151814     0.35800
C847        C  0.59290427  0.70002217  0.45349272    -0.21700
C848        C  0.59088497  0.69762911  0.41953853    -0.21700
C849        C  0.38636746  0.69828859  0.46342367    -0.21700
C850        C  0.38438320  0.69646524  0.42945151    -0.21700
C851        C  0.51126891  0.73781675  0.54045893    -0.22700
C852        C  0.47625375  0.73717654  0.54202056    -0.22700
C853        C  0.50079494  0.72793152  0.33794862    -0.22700
C854        C  0.46569203  0.72752819  0.33953820    -0.22700
C855        C  0.55385152  0.72117448  0.49763298    -0.18100
C856        C  0.54718753  0.71382530  0.37774004    -0.18100
C857        C  0.42345829  0.71264907  0.38343209    -0.18100
C858        C  0.43029037  0.71941055  0.50309995    -0.18100
H859        H  0.61513860  0.69407135  0.46837131     0.14800
H860        H  0.61135201  0.68966792  0.40314220     0.14800
H861        H  0.36589358  0.69218481  0.48056962     0.14800
H862        H  0.36213077  0.68863258  0.41529019     0.14800
H863        H  0.52826711  0.74585162  0.56022699     0.13100
H864        H  0.46095240  0.74456990  0.56324124     0.13100
H865        H  0.51597321  0.73449285  0.31636996     0.13100
H866        H  0.44845963  0.73373671  0.31943416     0.13100
H867        H  0.51750495  0.73081736  0.43853443     0.26400
H868        H  0.45981799  0.72946115  0.44093671     0.26400
N869        N  0.19898857  0.45004852  0.44738072    -0.36400
N870        N  0.20072837  0.50722227  0.49453797    -0.56900
N871        N  0.18603345  0.55838535  0.44237149    -0.36400
N872        N  0.18592360  0.50094906  0.39552611    -0.56900
C873        C  0.21385367  0.43383655  0.47350773     0.27200
C874        C  0.20577860  0.43023205  0.42028274     0.27200
C875        C  0.19642496  0.57986025  0.46707361     0.27200
C876        C  0.19049393  0.57657221  0.41387739     0.27200
C877        C  0.20072383  0.47945850  0.51562520     0.35800
C878        C  0.19298415  0.53607074  0.51270556     0.35800
C879        C  0.18138957  0.47080883  0.37815290     0.35800
C880        C  0.17620215  0.52765919  0.37551099     0.35800
C881        C  0.22970340  0.40293704  0.46297636    -0.21700
C882        C  0.22460897  0.40067043  0.42932533    -0.21700
C883        C  0.20656215  0.61250896  0.45436056    -0.21700
C884        C  0.20290286  0.61038585  0.42063543    -0.21700
C885        C  0.19227598  0.49056982  0.54729118    -0.22700
C886        C  0.18772363  0.52668447  0.54549730    -0.22700
C887        C  0.16812661  0.47835954  0.34711062    -0.22700
C888        C  0.16479459  0.51453636  0.34546587    -0.22700
C889        C  0.21133469  0.44504128  0.50685669    -0.18100
C890        C  0.19434393  0.43763553  0.38788011    -0.18100
C891        C  0.18294906  0.56356146  0.38206651    -0.18100
C892        C  0.19578195  0.57104218  0.50084664    -0.18100
H893        H  0.24334675  0.38389473  0.47801560     0.14800
H894        H  0.23359713  0.37957636  0.41337843     0.14800
H895        H  0.21585660  0.63538479  0.46792564     0.14800
H896        H  0.20883218  0.63130702  0.40312825     0.14800
H897        H  0.19070088  0.47456858  0.56950951     0.13100
H898        H  0.18226828  0.54420131  0.56606100     0.13100
H899        H  0.16304796  0.45990351  0.32715763     0.13100
H900        H  0.15664909  0.52960430  0.32407400     0.13100
H901        H  0.18209153  0.47125820  0.44850393     0.26400
H902        H  0.17394311  0.53389338  0.44521498     0.26400
N903        N  0.48583766  0.23471675  0.49299517    -0.36400
N904        N  0.43380351  0.22954775  0.44246835    -0.56900
N905        N  0.48608427  0.23255336  0.39087731    -0.36400
N906        N  0.53807033  0.24157958  0.44145455    -0.56900
C907        C  0.45749030  0.23926608  0.51177463     0.27200
C908        C  0.51294593  0.24532435  0.51129952     0.27200
C909        C  0.45766584  0.23724071  0.37242167     0.27200
C910        C  0.51314215  0.24163556  0.37177808     0.27200
C911        C  0.41374756  0.22412589  0.46926231     0.35800
C912        C  0.41386958  0.22381491  0.41573434     0.35800
C913        C  0.55862512  0.24031763  0.46832789     0.35800
C914        C  0.55870314  0.23859215  0.41469257     0.35800
C915        C  0.46676184  0.25267312  0.54244850    -0.21700
C916        C  0.50177155  0.25628592  0.54221841    -0.21700
C917        C  0.46680509  0.24895625  0.34105355    -0.21700
C918        C  0.50185471  0.25160789  0.34061246    -0.21700
C919        C  0.38093087  0.21494242  0.45945600    -0.22700
C920        C  0.38097801  0.21486890  0.42557368    -0.22700
C921        C  0.59245385  0.23737133  0.45853712    -0.22700
C922        C  0.59250428  0.23633015  0.42460149    -0.22700
C923        C  0.42359551  0.23075042  0.50234380    -0.18100
C924        C  0.54765123  0.24342303  0.50159603    -0.18100
C925        C  0.54780364  0.23995629  0.38134229    -0.18100
C926        C  0.42381250  0.22989884  0.38262039    -0.18100
H927        H  0.45006439  0.25901650  0.56296416     0.14800
H928        H  0.51725128  0.26589191  0.56254029     0.14800
H929        H  0.44999303  0.25478501  0.32051841     0.14800
H930        H  0.51724280  0.26002599  0.31973356     0.14800
H931        H  0.35897342  0.20974034  0.47506068     0.13100
H932        H  0.35906424  0.20961562  0.40997095     0.13100
H933        H  0.61484296  0.23636242  0.47420315     0.13100
H934        H  0.61491867  0.23440824  0.40899974     0.13100
H935        H  0.48710585  0.22150767  0.47048749     0.26400
H936        H  0.48720742  0.22041171  0.41391658     0.26400
C937        C  0.62836970  0.75660104  0.54839090    -0.12000
C938        C  0.63007073  0.73158095  0.57415962     0.05000
C939        C  0.60791745  0.70174008  0.57317227    -0.07300
C940        C  0.58443319  0.69808358  0.54720259    -0.08100
C941        C  0.58212015  0.72378623  0.52219407    -0.02600
C942        C  0.60467690  0.75306375  0.52268895     0.04200
N943        N  0.60279301  0.78042340  0.49826288     0.66700
H944        H  0.64530706  0.77946888  0.54834217     0.15600
H945        H  0.56686884  0.67572851  0.54725509     0.15300
N946        N  0.60687905  0.67634974  0.59945064     0.74400
O947        O  0.62303328  0.77956640  0.47395248    -0.39100
O948        O  0.58864071  0.80940821  0.50570376    -0.39000
O949        O  0.58515932  0.68024536  0.62225612    -0.39700
O950        O  0.61983758  0.64609947  0.59490182    -0.39800
C951        C  0.81202439  0.64145735  0.56730602    -0.12000
C952        C  0.77764772  0.64984440  0.57347404     0.05000
C953        C  0.75200527  0.62984407  0.55685476    -0.07300
C954        C  0.76110440  0.60275667  0.53485598    -0.08100
C955        C  0.79530255  0.59399596  0.52921907    -0.02600
C956        C  0.82101616  0.61374317  0.54563063     0.04200
N957        N  0.85634841  0.60602059  0.54082689     0.66700
H958        H  0.83211429  0.65592914  0.57997964     0.15600
H959        H  0.74113274  0.58822111  0.52203589     0.15300
N960        N  0.71643614  0.63666348  0.56154504     0.74400
O961        O  0.87339208  0.62484183  0.52085376    -0.39100
O962        O  0.87196415  0.58875818  0.56285956    -0.39000
O963        O  0.70094253  0.65539563  0.54049935    -0.39700
O964        O  0.69932084  0.61588873  0.57970727    -0.39800
C965        C  0.61712209  0.62222863  0.69930291    -0.12000
C966        C  0.62498345  0.64778918  0.72390944     0.05000
C967        C  0.61165963  0.64241732  0.75616361    -0.07300
C968        C  0.59160389  0.61240992  0.76305134    -0.08100
C969        C  0.58400336  0.58749729  0.73848929    -0.02600
C970        C  0.59679585  0.59244572  0.70636450     0.04200
N971        N  0.58755261  0.56846593  0.68037429     0.66700
H972        H  0.62639880  0.62546261  0.67420536     0.15600
H973        H  0.58084554  0.60910601  0.78760177     0.15300
N974        N  0.61762854  0.66705119  0.78235801     0.74400
O975        O  0.55949251  0.57254910  0.66552124    -0.39100
O976        O  0.60340355  0.53952919  0.67729005    -0.39000
O977        O  0.59403920  0.68823268  0.79013021    -0.39700
O978        O  0.64029557  0.65993981  0.80349808    -0.39800
C979        C  0.74920673  0.36752622  0.55769032    -0.12000
C980        C  0.77686056  0.35006354  0.57276152     0.05000
C981        C  0.81044859  0.36105803  0.56410278    -0.07300
C982        C  0.81537638  0.38904593  0.54153139    -0.08100
C983        C  0.78761943  0.40645547  0.52695035    -0.02600
C984        C  0.75423673  0.39526420  0.53506090     0.04200
N985        N  0.72501927  0.41183128  0.52072833     0.66700
H986        H  0.72320901  0.35965786  0.56348353     0.15600
H987        H  0.84116239  0.39727995  0.53526943     0.15300
N988        N  0.83995003  0.34535333  0.57872906     0.74400
O989        O  0.71139997  0.39787414  0.49557796    -0.39100
O990        O  0.70770986  0.43300496  0.53812954    -0.39000
O991        O  0.85681336  0.32305206  0.56215976    -0.39700
O992        O  0.85438640  0.36123024  0.60243465    -0.39800
C993        C  0.61093697  0.21371221  0.56728862    -0.12000
C994        C  0.62697354  0.24604219  0.57649221     0.05000
C995        C  0.61578621  0.27766336  0.56046922    -0.07300
C996        C  0.58971648  0.27632904  0.53664373    -0.08100
C997        C  0.57419781  0.24422701  0.52796698    -0.02600
C998        C  0.58485487  0.21273135  0.54335461     0.04200
N999        N  0.56947407  0.17956519  0.53435970     0.66700
H1000       H  0.61853958  0.18894968  0.57872796     0.15600
H1001       H  0.58172862  0.30060993  0.52451976     0.15300
N1002       N  0.63086667  0.31149516  0.56713437     0.74400
O1003       O  0.57956845  0.16390427  0.50854803    -0.39100
O1004       O  0.54086041  0.17122103  0.54659794    -0.39000
O1005       O  0.65279382  0.32351762  0.54707606    -0.39700
O1006       O  0.61475317  0.33304894  0.58519751    -0.39800
C1007       C  0.60795340  0.36960563  0.69959182    -0.12000
C1008       C  0.62135412  0.34798369  0.72503999     0.05000
C1009       C  0.61102394  0.35486329  0.75812006    -0.07300
C1010       C  0.58835843  0.38258848  0.76491933    -0.08100
C1011       C  0.57566132  0.40387357  0.73954882    -0.02600
C1012       C  0.58535513  0.39734770  0.70668187     0.04200
N1013       N  0.57225420  0.41887516  0.68044632     0.66700
H1014       H  0.61502840  0.36505837  0.67401441     0.15600
H1015       H  0.58072763  0.38769333  0.79026855     0.15300
N1016       N  0.62387553  0.33497434  0.78544192     0.74400
O1017       O  0.58675184  0.44803865  0.67381083    -0.39100
O1018       O  0.54243419  0.41316592  0.66978407    -0.39000
O1019       O  0.64741176  0.34841545  0.80277672    -0.39700
O1020       O  0.60513215  0.31115567  0.79800671    -0.39800
C1021       C  0.36209500  0.20914468  0.57285025    -0.12000
C1022       C  0.33981214  0.23818326  0.57126430     0.05000
C1023       C  0.34587519  0.26506935  0.54754533    -0.07300
C1024       C  0.37369044  0.26233504  0.52595159    -0.08100
C1025       C  0.39589702  0.23328396  0.52749839    -0.02600
C1026       C  0.39013391  0.20660056  0.55140072     0.04200
N1027       N  0.41240958  0.17682266  0.55431683     0.66700
H1028       H  0.35828259  0.18879352  0.59150911     0.15600
H1029       H  0.37772705  0.28277474  0.50741849     0.15300
N1030       N  0.32327735  0.29452117  0.54397929     0.74400
O1031       O  0.40332552  0.14747712  0.54198411    -0.39100
O1032       O  0.43511159  0.17715542  0.57647363    -0.39000
O1033       O  0.33303364  0.32484428  0.55348067    -0.39700
O1034       O  0.29921107  0.29231360  0.52331160    -0.39800
C1035       C  0.24792154  0.39658867  0.58176619    -0.12000
C1036       C  0.22624270  0.36684345  0.58312384     0.05000
C1037       C  0.20090264  0.36254796  0.55851395    -0.07300
C1038       C  0.19645879  0.38864946  0.53449359    -0.08100
C1039       C  0.21765363  0.41859581  0.53339043    -0.02600
C1040       C  0.24402647  0.42233301  0.55703451     0.04200
N1041       N  0.26757713  0.45142572  0.55590638     0.66700
H1042       H  0.26779963  0.40009108  0.60015494     0.15600
H1043       H  0.17660502  0.38517646  0.51605913     0.15300
N1044       N  0.18075738  0.33092250  0.55617120     0.74400
O1045       O  0.26357029  0.47703366  0.57566225    -0.39100
O1046       O  0.29670819  0.44645831  0.54337414    -0.39000
O1047       O  0.14937713  0.33233480  0.56319400    -0.39700
O1048       O  0.19142916  0.30579441  0.53831071    -0.39800
C1049       C  0.36009418  0.36359107  0.76386204    -0.12000
C1050       C  0.33935109  0.37365423  0.73712004     0.05000
C1051       C  0.34780519  0.40473722  0.71928068    -0.07300
C1052       C  0.37648984  0.42478611  0.72818150    -0.08100
C1053       C  0.39744376  0.41468100  0.75465926    -0.02600
C1054       C  0.38915925  0.38355398  0.77257570     0.04200
N1055       N  0.41008827  0.37144183  0.79920455     0.66700
H1056       H  0.35440179  0.33936648  0.77734644     0.15600
H1057       H  0.38254575  0.44859765  0.71419228     0.15300
N1058       N  0.32707524  0.41703319  0.69260103     0.74400
O1059       O  0.40122684  0.37837678  0.82851637    -0.39100
O1060       O  0.43038563  0.34604401  0.79413865    -0.39000
O1061       O  0.30589823  0.44152680  0.69809626    -0.39700
O1062       O  0.33682028  0.41155353  0.66327330    -0.39800
C1063       C  0.88640897  0.90187860  0.60574978    -0.12000
C1064       C  0.90333901  0.92054586  0.63065958     0.05000
C1065       C  0.89515385  0.91398706  0.66397452    -0.07300
C1066       C  0.87105080  0.88768564  0.67200271    -0.08100
C1067       C  0.85434349  0.86786805  0.64707272    -0.02600
C1068       C  0.86177197  0.87606392  0.61352739     0.04200
N1069       N  0.84365791  0.85983441  0.58686613     0.66700
H1070       H  0.89242230  0.90737585  0.58005494     0.15600
H1071       H  0.86580265  0.88242923  0.69788896     0.15300
N1072       N  0.91185965  0.93350025  0.68973830     0.74400
O1073       O  0.81831833  0.87595467  0.57486844    -0.39100
O1074       O  0.85893891  0.83726689  0.56921473    -0.39000
O1075       O  0.90189095  0.96451820  0.69644317    -0.39700
O1076       O  0.94074212  0.92348375  0.69988187    -0.39800
C1077       C  0.91618282  0.12940666  0.62576365    -0.12000
C1078       C  0.91964194  0.09994310  0.64659327     0.05000
C1079       C  0.90005660  0.09824715  0.67583227    -0.07300
C1080       C  0.87692344  0.12530429  0.68322784    -0.08100
C1081       C  0.87241339  0.15461163  0.66202590    -0.02600
C1082       C  0.89308350  0.15670415  0.63312019     0.04200
N1083       N  0.89164059  0.18629266  0.61102977     0.66700
H1084       H  0.93146673  0.13112082  0.60342152     0.15600
H1085       H  0.86191809  0.12273059  0.70565265     0.15300
N1086       N  0.90326447  0.06930015  0.69846895     0.74400
O1087       O  0.91348119  0.21082760  0.61416495    -0.39100
O1088       O  0.87676009  0.18251342  0.58355547    -0.39000
O1089       O  0.92030840  0.07390293  0.72462016    -0.39700
O1090       O  0.88145198  0.04453081  0.69752598    -0.39800
C1091       C  0.11328787  0.07418123  0.66313929    -0.12000
C1092       C  0.09783030  0.08181259  0.63272615     0.05000
C1093       C  0.11255907  0.10774435  0.61193502    -0.07300
C1094       C  0.14181271  0.12617517  0.62230667    -0.08100
C1095       C  0.15664322  0.11950466  0.65333789    -0.02600
C1096       C  0.14234603  0.09274048  0.67365041     0.04200
N1097       N  0.15720523  0.08348269  0.70470835     0.66700
H1098       H  0.10253947  0.05366896  0.67892352     0.15600
H1099       H  0.15211767  0.14693428  0.60652945     0.15300
N1100       N  0.09810898  0.11598152  0.58044308     0.76000
O1101       O  0.14378451  0.09524404  0.73087176    -0.39100
O1102       O  0.17555578  0.05604741  0.70632670    -0.39000
O1103       O  0.08097623  0.14411431  0.57734790    -0.39700
O1104       O  0.11051724  0.10163406  0.55492777    -0.39800
C1105       C  0.24159208  0.63265028  0.55919927    -0.12000
C1106       C  0.21486197  0.65517312  0.56943574     0.05000
C1107       C  0.18187236  0.65017655  0.55566401    -0.07300
C1108       C  0.17607815  0.62234902  0.53355248    -0.08100
C1109       C  0.20247540  0.59952915  0.52473524    -0.02600
C1110       C  0.23556222  0.60502152  0.53698187     0.04200
N1111       N  0.26321110  0.58302723  0.52638646     0.66700
H1112       H  0.26726862  0.63619866  0.56870203     0.15600
H1113       H  0.15074697  0.61832670  0.52334802     0.15300
N1114       N  0.15356573  0.67203146  0.56442628     0.74400
O1115       O  0.27783905  0.58959888  0.49920233    -0.39100
O1116       O  0.26782749  0.55331982  0.54012578    -0.39000
O1117       O  0.14400880  0.69557629  0.54424853    -0.39700
O1118       O  0.13255227  0.66064973  0.58567780    -0.39800
C1119       C  0.39833791  0.69507540  0.55099454    -0.12000
C1120       C  0.40440852  0.72331117  0.52950579     0.05000
C1121       C  0.38712032  0.75551643  0.53402577    -0.07300
C1122       C  0.36432367  0.75933732  0.56058085    -0.08100
C1123       C  0.35806906  0.73101746  0.58274851    -0.02600
C1124       C  0.37531226  0.69842019  0.57724433     0.04200
N1125       N  0.37139326  0.66873820  0.59878901     0.66700
H1126       H  0.41191872  0.67029743  0.54755763     0.15600
H1127       H  0.35133063  0.78448139  0.56365290     0.15300
N1128       N  0.39314548  0.78458686  0.51197581     0.74400
O1129       O  0.35148721  0.64391006  0.59024315    -0.39100
O1130       O  0.39538597  0.66204763  0.61862403    -0.39000
O1131       O  0.37893031  0.78458384  0.48395476    -0.39700
O1132       O  0.41858546  0.80461813  0.51683563    -0.39800
C1133       C  0.37483389  0.64444037  0.76501559    -0.12000
C1134       C  0.35832906  0.64157097  0.73391973     0.05000
C1135       C  0.36706671  0.61234559  0.71328809    -0.07300
C1136       C  0.39171008  0.58812378  0.72334738    -0.08100
C1137       C  0.40775495  0.59130686  0.75385276    -0.02600
C1138       C  0.39928787  0.61937159  0.77504784     0.04200
N1139       N  0.41531349  0.62230181  0.80670660     0.66700
H1140       H  0.36871939  0.66602929  0.78168924     0.15600
H1141       H  0.39842451  0.56633451  0.70704850     0.15300
N1142       N  0.35103113  0.60573397  0.68222382     0.74400
O1143       O  0.44307542  0.63926247  0.80917893    -0.39100
O1144       O  0.40688418  0.60089344  0.82937417    -0.39000
O1145       O  0.36827185  0.61088353  0.65629539    -0.39700
O1146       O  0.32708766  0.58321025  0.68132160    -0.39800
C1147       C  0.11511704  0.85461081  0.61884028    -0.12000
C1148       C  0.12754643  0.85775818  0.65146921     0.05000
C1149       C  0.11624460  0.88697959  0.67076157    -0.07300
C1150       C  0.09290146  0.91108105  0.65753482    -0.08100
C1151       C  0.08071400  0.90756102  0.62521297    -0.02600
C1152       C  0.09209811  0.87913523  0.60564367     0.04200
N1153       N  0.08108709  0.87492674  0.57222444     0.66700
H1154       H  0.12348660  0.83310478  0.60301560     0.15600
H1155       H  0.08412425  0.93296390  0.67275322     0.15300
N1156       N  0.12771413  0.89312816  0.70376630     0.74400
O1157       O  0.09981759  0.88687994  0.54930947    -0.39100
O1158       O  0.05956698  0.85090415  0.56561136    -0.39000
O1159       O  0.14964820  0.91724826  0.70855030    -0.39700
O1160       O  0.10779286  0.88516022  0.72714435    -0.39800
C1161       C  0.08206516  0.80170099  0.83215828    -0.12000
C1162       C  0.07700299  0.77317770  0.85373695     0.05000
C1163       C  0.09639128  0.74207899  0.84959087    -0.07300
C1164       C  0.11974283  0.73971990  0.82347992    -0.08100
C1165       C  0.12452032  0.76801812  0.80115795    -0.02600
C1166       C  0.10538805  0.79943845  0.80601428     0.04200
N1167       N  0.10677243  0.82823092  0.78321417     0.66700
H1168       H  0.06701903  0.82561905  0.83509966     0.15600
H1169       H  0.13434370  0.71548222  0.82086242     0.15300
N1170       N  0.09254756  0.71250568  0.87145036     0.74400
O1171       O  0.08422204  0.82947777  0.76097915    -0.39100
O1172       O  0.12125462  0.85668762  0.79205301    -0.39000
O1173       O  0.07486840  0.68619474  0.86225680    -0.39700
O1174       O  0.11386162  0.70851661  0.89455160    -0.39800
C1175       C  0.85499374  0.75379937  0.82442498    -0.12000
C1176       C  0.85197702  0.78188311  0.80162225     0.05000
C1177       C  0.87226994  0.81273328  0.80648716    -0.07300
C1178       C  0.89563623  0.81407295  0.83284990    -0.08100
C1179       C  0.89904526  0.78541125  0.85477462    -0.02600
C1180       C  0.87809807  0.75528670  0.85066045     0.04200
N1181       N  0.88073475  0.72532767  0.87220598     0.66700
H1182       H  0.83939265  0.73009758  0.82188086     0.15600
H1183       H  0.91179388  0.83731617  0.83582194     0.15300
N1184       N  0.87073488  0.84232195  0.78440441     0.74400
O1185       O  0.85999788  0.72240972  0.89599600    -0.39100
O1186       O  0.89629129  0.69806445  0.86219862    -0.39000
O1187       O  0.85378043  0.86928261  0.79286610    -0.39700
O1188       O  0.89352702  0.84563858  0.76248925    -0.39800
C1189       C  0.73685597  0.87050789  0.82726621    -0.12000
C1190       C  0.70866123  0.85460993  0.81113274     0.05000
C1191       C  0.67535341  0.86389341  0.82182408    -0.07300
C1192       C  0.67094276  0.88997505  0.84621898    -0.08100
C1193       C  0.69903869  0.90627261  0.86128421    -0.02600
C1194       C  0.73219735  0.89562208  0.85253452     0.04200
N1195       N  0.76114785  0.90965512  0.86979531     0.66700
H1196       H  0.76266912  0.86324196  0.82037871     0.15600
H1197       H  0.64534084  0.89757961  0.85351455     0.15300
N1198       N  0.64552819  0.84802339  0.80781581     0.74400
O1199       O  0.76923746  0.89648154  0.89741230    -0.39100
O1200       O  0.77311902  0.93959587  0.86164895    -0.39000
O1201       O  0.62960951  0.82489426  0.82448049    -0.39700
O1202       O  0.62982919  0.86451613  0.78533949    -0.39800
C1203       C  0.67763073  0.13210226  0.81745655    -0.12000
C1204       C  0.71089958  0.14648599  0.81406208     0.05000
C1205       C  0.73641756  0.13420542  0.83607295    -0.07300
C1206       C  0.72917821  0.10764405  0.85928549    -0.08100
C1207       C  0.69666397  0.09271277  0.86170819    -0.02600
C1208       C  0.67051702  0.10535198  0.84106763     0.04200
N1209       N  0.63668232  0.09141987  0.84442815     0.66700
H1210       H  0.65733094  0.14103545  0.80130582     0.15600
H1211       H  0.74929697  0.09842363  0.87555921     0.15300
N1212       N  0.77021022  0.14808675  0.83538132     0.74400
O1213       O  0.61777536  0.10330355  0.86715104    -0.39100
O1214       O  0.62960662  0.06169688  0.83165246    -0.39000
O1215       O  0.77895014  0.16995818  0.85753055    -0.39700
O1216       O  0.79284932  0.12968932  0.82138949    -0.39800
C1217       C  0.89773834  0.22279836  0.84556140    -0.12000
C1218       C  0.90941135  0.25601108  0.85594120     0.05000
C1219       C  0.89654517  0.28660701  0.84058339    -0.07300
C1220       C  0.87119855  0.28361786  0.81603454    -0.08100
C1221       C  0.85859754  0.25009207  0.80553519    -0.02600
C1222       C  0.87315522  0.21943397  0.82043780     0.04200
N1223       N  0.86328685  0.18435317  0.81131031     0.66700
H1224       H  0.90809882  0.19908277  0.85693479     0.15600
H1225       H  0.86156875  0.30784326  0.80505783     0.15300
N1226       N  0.90953893  0.32082693  0.84951479     0.74400
O1227       O  0.88047873  0.16868036  0.78932799    -0.39100
O1228       O  0.84824070  0.16580875  0.83284800    -0.39000
O1229       O  0.93766775  0.33116617  0.83752821    -0.39700
O1230       O  0.89769711  0.33628243  0.87471574    -0.39800
C1231       C  0.09668547  0.29851940  0.84151458    -0.12000
C1232       C  0.08756722  0.26774719  0.85885827     0.05000
C1233       C  0.10528824  0.23602065  0.85289340    -0.07300
C1234       C  0.13159143  0.23534043  0.82933499    -0.08100
C1235       C  0.14110868  0.26623574  0.81172943    -0.02600
C1236       C  0.12324517  0.29813513  0.81816266     0.04200
N1237       N  0.13028881  0.32997864  0.80019596     0.66700
H1238       H  0.08298424  0.32299528  0.84610069     0.15600
H1239       H  0.14488791  0.21056532  0.82500614     0.15300
N1240       N  0.09700050  0.20455291  0.87111049     0.74400
O1241       O  0.11160014  0.33755654  0.77578211    -0.39100
O1242       O  0.14644150  0.35463661  0.81452317    -0.39000
O1243       O  0.07155544  0.18602227  0.86255295    -0.39700
O1244       O  0.10980346  0.20007707  0.89944944    -0.39800
C1245       C  0.23949087  0.08791986  0.84699229    -0.12000
C1246       C  0.27258448  0.08288209  0.85907247     0.05000
C1247       C  0.29974312  0.10284538  0.84584699    -0.07300
C1248       C  0.29362335  0.12680602  0.82029000    -0.08100
C1249       C  0.26062288  0.13165884  0.80726118    -0.02600
C1250       C  0.23313730  0.11216020  0.82144929     0.04200
N1251       N  0.19875517  0.11595276  0.81026875     0.66700
H1252       H  0.21847767  0.07268362  0.85735725     0.15600
H1253       H  0.31524371  0.14159095  0.81059744     0.15300
N1254       N  0.33389650  0.09873336  0.85758050     0.74400
O1255       O  0.18675228  0.09301182  0.79066334    -0.39100
O1256       O  0.17836974  0.13439961  0.82724157    -0.39000
O1257       O  0.35434560  0.07997332  0.84099980    -0.39700
O1258       O  0.34580714  0.12148857  0.87744093    -0.39800
C1259       C  0.30264481  0.85395408  0.82323730    -0.12000
C1260       C  0.26890983  0.84375715  0.81691738     0.05000
C1261       C  0.24200919  0.86018796  0.83422109    -0.07300
C1262       C  0.24908042  0.88818972  0.85587599    -0.08100
C1263       C  0.28290540  0.89903595  0.86162144    -0.02600
C1264       C  0.30987031  0.88111981  0.84570111     0.04200
N1265       N  0.34472128  0.88982743  0.85215226     0.66700
H1266       H  0.32350069  0.84135216  0.81011009     0.15600
H1267       H  0.22826925  0.90093641  0.86894543     0.15300
N1268       N  0.20758979  0.84799733  0.83050536     0.74400
O1269       O  0.36095485  0.87108317  0.87265402    -0.39100
O1270       O  0.36122154  0.90717616  0.83065912    -0.39000
O1271       O  0.19942797  0.81723175  0.84026760    -0.39700
O1272       O  0.18753654  0.86487450  0.81192172    -0.39800
C1273       C  0.35930240  0.69584939  0.31429493    -0.12000
C1274       C  0.34260085  0.72884059  0.31240157     0.05000
C1275       C  0.35151079  0.75547184  0.33579023    -0.07300
C1276       C  0.37719065  0.74903156  0.35912465    -0.08100
C1277       C  0.39451583  0.71662380  0.35990925    -0.02600
C1278       C  0.38497760  0.68959417  0.33766613     0.04200
N1279       N  0.40086186  0.65553941  0.33857986     0.66700
H1280       H  0.35283824  0.67473309  0.29719671     0.15600
H1281       H  0.38412217  0.76981057  0.37647760     0.15300
N1282       N  0.33490334  0.78918729  0.33659505     0.74400
O1283       O  0.38681627  0.63092289  0.35495558    -0.39100
O1284       O  0.42233833  0.64767335  0.31648681    -0.39000
O1285       O  0.31199890  0.79447952  0.35801945    -0.39700
O1286       O  0.34963109  0.81559989  0.32353496    -0.39800
C1287       C  0.21899723  0.61057322  0.30756611    -0.12000
C1288       C  0.19474129  0.63740071  0.30223040     0.05000
C1289       C  0.16503107  0.63813532  0.32240219    -0.07300
C1290       C  0.16125386  0.61333399  0.34794612    -0.08100
C1291       C  0.18639233  0.58783831  0.35369141    -0.02600
C1292       C  0.21523501  0.58619381  0.33305747     0.04200
N1293       N  0.24170700  0.56080341  0.33840888     0.66700
H1294       H  0.24177258  0.60875799  0.29240822     0.15600
H1295       H  0.13892570  0.61437660  0.36381090     0.15300
N1296       N  0.13892288  0.66415835  0.31824781     0.74400
O1297       O  0.24182003  0.53268450  0.32141088    -0.39100
O1298       O  0.26906134  0.57086938  0.35207680    -0.39000
O1299       O  0.11134256  0.65512854  0.30438129    -0.39700
O1300       O  0.13919004  0.69127852  0.33659886    -0.39800
C1301       C  0.40998377  0.61323602  0.18440607    -0.12000
C1302       C  0.41446189  0.60319325  0.15138077     0.05000
C1303       C  0.39677838  0.62130372  0.12618706    -0.07300
C1304       C  0.37392974  0.64826914  0.13465855    -0.08100
C1305       C  0.36809390  0.65713630  0.16794022    -0.02600
C1306       C  0.38700098  0.63991552  0.19291651     0.04200
N1307       N  0.38332860  0.64914250  0.22700874     0.66700
H1308       H  0.42389990  0.59962087  0.20379332     0.15600
H1309       H  0.35937952  0.66102686  0.11520959     0.15300
N1310       N  0.40031337  0.61145199  0.09220589     0.74400
O1311       O  0.36548583  0.62940682  0.24550749    -0.39100
O1312       O  0.40505961  0.66972198  0.23995727    -0.39000
O1313       O  0.37713362  0.59302547  0.07880263    -0.39700
O1314       O  0.42059933  0.62885601  0.07404669    -0.39800
C1315       C  0.31718138  0.88968685  0.04910027    -0.12000
C1316       C  0.28933600  0.90545823  0.03332178     0.05000
C1317       C  0.25583992  0.89623997  0.04263846    -0.07300
C1318       C  0.25062270  0.87059605  0.06678795    -0.08100
C1319       C  0.27827220  0.85435416  0.08272033    -0.02600
C1320       C  0.31198761  0.86451947  0.07408430     0.04200
N1321       N  0.34105226  0.85130991  0.09145080     0.66700
H1322       H  0.34297242  0.89736410  0.04228253     0.15600
H1323       H  0.22455060  0.86337534  0.07301784     0.15300
N1324       N  0.22677338  0.91277864  0.02795512     0.74400
O1325       O  0.35863754  0.82702308  0.07841317    -0.39100
O1326       O  0.35432757  0.87032894  0.11376053    -0.39000
O1327       O  0.20942316  0.89558962  0.00702811    -0.39700
O1328       O  0.21317823  0.93870387  0.04265751    -0.39800
C1329       C  0.11691466  0.73567605  0.05869762    -0.12000
C1330       C  0.13012137  0.76647166  0.07395826     0.05000
C1331       C  0.11737940  0.79997492  0.06352467    -0.07300
C1332       C  0.09152211  0.80162952  0.03957149    -0.08100
C1333       C  0.07838873  0.77074375  0.02504117    -0.02600
C1334       C  0.09162728  0.73757420  0.03437907     0.04200
N1335       N  0.07987485  0.70547990  0.01926655     0.66700
H1336       H  0.12614389  0.70961172  0.06559737     0.15600
H1337       H  0.08178653  0.82730034  0.03199952     0.15300
N1338       N  0.13052558  0.83270285  0.07622092     0.74400
O1339       O  0.09611237  0.69320326  0.99484965    -0.39100
O1340       O  0.06019862  0.68516551  0.03533401    -0.39000
O1341       O  0.15054598  0.85081442  0.05835380    -0.39700
O1342       O  0.11467757  0.84792886  0.09939558    -0.39800
C1343       C  0.81686038  0.63597339  0.31766885    -0.12000
C1344       C  0.78300143  0.64829069  0.31431928     0.05000
C1345       C  0.75736893  0.63318961  0.33481332    -0.07300
C1346       C  0.76551155  0.60652452  0.35742204    -0.08100
C1347       C  0.79880196  0.59396480  0.36021595    -0.02600
C1348       C  0.82474447  0.60869704  0.34034992     0.04200
N1349       N  0.85893654  0.59584987  0.34312103     0.66700
H1350       H  0.83689501  0.64672832  0.30202853     0.15600
H1351       H  0.74555150  0.59534842  0.37293522     0.15300
N1352       N  0.72274102  0.64473929  0.33343608     0.74400
O1353       O  0.86668216  0.56690817  0.32930248    -0.39100
O1354       O  0.87767747  0.60752587  0.36610239    -0.39000
O1355       O  0.70102062  0.62475802  0.31974163    -0.39700
O1356       O  0.71262862  0.66719311  0.35441167    -0.39800
C1357       C  0.58245801  0.68934514  0.33111535    -0.12000
C1358       C  0.57381243  0.71792870  0.35168369     0.05000
C1359       C  0.59119091  0.75045088  0.34815478    -0.07300
C1360       C  0.61723998  0.75396400  0.32455137    -0.08100
C1361       C  0.62632195  0.72539736  0.30373862    -0.02600
C1362       C  0.60830352  0.69288041  0.30711891     0.04200
N1363       N  0.61514433  0.66359244  0.28568073     0.66700
H1364       H  0.56892638  0.66430156  0.33359233     0.15600
H1365       H  0.63037453  0.77927750  0.32253155     0.15300
N1366       N  0.58205538  0.78026414  0.36820444     0.74400
O1367       O  0.63489427  0.63923233  0.29511716    -0.39100
O1368       O  0.60565522  0.66468516  0.25585655    -0.39000
O1369       O  0.59543373  0.78395162  0.39640210    -0.39700
O1370       O  0.55583814  0.79804313  0.36096057    -0.39800
C1371       C  0.59990420  0.59674181  0.11801572    -0.12000
C1372       C  0.58964994  0.57493626  0.14434464     0.05000
C1373       C  0.60533441  0.57908472  0.17538601    -0.07300
C1374       C  0.62920176  0.60622575  0.18017257    -0.08100
C1375       C  0.63812505  0.62996876  0.15454095    -0.02600
C1376       C  0.62397820  0.62404058  0.12270158     0.04200
N1377       N  0.63331221  0.64528548  0.09482721     0.66700
H1378       H  0.58804590  0.59346715  0.09397180     0.15600
H1379       H  0.63968791  0.60940936  0.20479968     0.15300
N1380       N  0.59599310  0.55724585  0.20290641     0.74400
O1381       O  0.65482606  0.63315287  0.07452396    -0.39100
O1382       O  0.61318843  0.66935308  0.08541278    -0.39000
O1383       O  0.61540814  0.53205137  0.21109475    -0.39700
O1384       O  0.57487061  0.56898469  0.22378280    -0.39800
C1385       C  0.88646104  0.74671332  0.03091095    -0.12000
C1386       C  0.90014529  0.78063928  0.02611046     0.05000
C1387       C  0.88877964  0.80886309  0.04607722    -0.07300
C1388       C  0.86490797  0.80240745  0.07128466    -0.08100
C1389       C  0.85188986  0.76803630  0.07712753    -0.02600
C1390       C  0.86250148  0.74009294  0.05584750     0.04200
N1391       N  0.84899517  0.70487943  0.05846399     0.66700
H1392       H  0.89479861  0.72498310  0.01528843     0.15600
H1393       H  0.85701339  0.82446856  0.08667643     0.15300
N1394       N  0.90129515  0.84416488  0.04127290     0.74400
O1395       O  0.82526608  0.69561125  0.03913982    -0.39100
O1396       O  0.86691866  0.68117662  0.07199757    -0.39000
O1397       O  0.88324385  0.86596424  0.02533762    -0.39700
O1398       O  0.92451614  0.85578862  0.06005890    -0.39800
C1399       C  0.67482375  0.85941566  0.07104418    -0.12000
C1400       C  0.70828897  0.84659627  0.07411940     0.05000
C1401       C  0.73443411  0.86240944  0.05473943    -0.07300
C1402       C  0.72692834  0.89088024  0.03373795    -0.08100
C1403       C  0.69377379  0.90440078  0.03140550    -0.02600
C1404       C  0.66740321  0.88817515  0.05002971     0.04200
N1405       N  0.63311619  0.90078689  0.04836491     0.66700
H1406       H  0.65455977  0.84800621  0.08601322     0.15600
H1407       H  0.74716979  0.90239550  0.01879380     0.15300
N1408       N  0.76866702  0.84933756  0.05527922     0.74400
O1409       O  0.61095822  0.88225174  0.03356513    -0.39100
O1410       O  0.62343221  0.92377398  0.06902986    -0.39000
O1411       O  0.77748539  0.82666053  0.03395529    -0.39700
O1412       O  0.79149837  0.86746547  0.06953603    -0.39800
C1413       C  0.61214686  0.21579145  0.31460760    -0.12000
C1414       C  0.62657617  0.24912142  0.30669444     0.05000
C1415       C  0.61357798  0.27950086  0.32320876    -0.07300
C1416       C  0.58790961  0.27582110  0.34718621    -0.08100
C1417       C  0.57429315  0.24254116  0.35507321    -0.02600
C1418       C  0.58628105  0.21235542  0.33830916     0.04200
N1419       N  0.57261017  0.17789457  0.34510103     0.66700
H1420       H  0.62089393  0.19188331  0.30238001     0.15600
H1421       H  0.57867615  0.29920303  0.35999776     0.15300
N1422       N  0.62671873  0.31426802  0.31739387     0.74400
O1423       O  0.55177505  0.16430752  0.32487750    -0.39100
O1424       O  0.58812933  0.15793703  0.36511940    -0.39000
O1425       O  0.60936731  0.33523462  0.29994238    -0.39700
O1426       O  0.64631829  0.32731866  0.33887796    -0.39800
C1427       C  0.76241712  0.39877971  0.35371713    -0.12000
C1428       C  0.79671021  0.40808407  0.35776134     0.05000
C1429       C  0.82167471  0.39061146  0.33873591    -0.07300
C1430       C  0.81178017  0.36486202  0.31546966    -0.08100
C1431       C  0.77718663  0.35566352  0.31103943    -0.02600
C1432       C  0.75253568  0.37276185  0.33098348     0.04200
N1433       N  0.71791329  0.36128354  0.33158506     0.66700
H1434       H  0.74313913  0.41127751  0.36904210     0.15600
H1435       H  0.83136365  0.35209888  0.30075644     0.15300
N1436       N  0.85713910  0.39805102  0.34318006     0.74400
O1437       O  0.70937653  0.33940747  0.35378556    -0.39100
O1438       O  0.69540990  0.38099436  0.31894700    -0.39000
O1439       O  0.87482947  0.37704433  0.36037271    -0.39700
O1440       O  0.87197155  0.41887346  0.32328775    -0.39800
C1441       C  0.56782280  0.38679029  0.18233345    -0.12000
C1442       C  0.56049851  0.39367417  0.14925814     0.05000
C1443       C  0.57614577  0.37343635  0.12439452    -0.07300
C1444       C  0.60053199  0.34765490  0.13302927    -0.08100
C1445       C  0.60930937  0.34161200  0.16651525    -0.02600
C1446       C  0.59160559  0.36099238  0.19118844     0.04200
N1447       N  0.59658100  0.35460900  0.22556206     0.66700
H1448       H  0.55519238  0.40199867  0.20154004     0.15600
H1449       H  0.61332018  0.33316006  0.11348522     0.15300
N1450       N  0.56766373  0.37945309  0.09045690     0.74400
O1451       O  0.61225577  0.37786498  0.24221272    -0.39100
O1452       O  0.57557988  0.33444324  0.24015980    -0.39000
O1453       O  0.58237614  0.40428909  0.07493402    -0.39700
O1454       O  0.53996059  0.36703505  0.07933592    -0.39800
C1455       C  0.67217945  0.09978466  0.05562890    -0.12000
C1456       C  0.69752029  0.09242598  0.03185004     0.05000
C1457       C  0.72750620  0.11354399  0.03140257    -0.07300
C1458       C  0.73229862  0.14005515  0.05510927    -0.08100
C1459       C  0.70732845  0.14722851  0.07889008    -0.02600
C1460       C  0.67675298  0.12726950  0.07888176     0.04200
N1461       N  0.65058413  0.13429272  0.10268147     0.66700
H1462       H  0.64879910  0.08426159  0.05598276     0.15600
H1463       H  0.75570074  0.15556098  0.05464538     0.15300
N1464       N  0.75334930  0.10893690  0.00682852     0.74400
O1465       O  0.62675662  0.15531054  0.09525843    -0.39100
O1466       O  0.65529525  0.12615589  0.13263576    -0.39000
O1467       O  0.75415449  0.13018539  0.98265709    -0.39700
O1468       O  0.78040936  0.09297611  0.01475805    -0.39800
C1469       C  0.88898097  0.22678001  0.03350807    -0.12000
C1470       C  0.90794373  0.25821461  0.02965096     0.05000
C1471       C  0.90093908  0.28710604  0.05074517    -0.07300
C1472       C  0.87469916  0.28458470  0.07425206    -0.08100
C1473       C  0.85518346  0.25335315  0.07810704    -0.02600
C1474       C  0.86309142  0.22388947  0.05757037     0.04200
N1475       N  0.84496809  0.19098973  0.06015061     0.66700
H1476       H  0.89434375  0.20425766  0.01764875     0.15600
H1477       H  0.86995226  0.30736096  0.08997435     0.15300
N1478       N  0.92023733  0.31932696  0.04881478     0.74400
O1479       O  0.82059736  0.18498324  0.04048734    -0.39100
O1480       O  0.85932734  0.16508527  0.07418486    -0.39000
O1481       O  0.90783269  0.34539324  0.03336781    -0.39700
O1482       O  0.94335804  0.32489156  0.06995811    -0.39800
C1483       C  0.18284550  0.36317176  0.32608063    -0.12000
C1484       C  0.21198083  0.36761264  0.30608242     0.05000
C1485       C  0.23568062  0.39474649  0.31414946    -0.07300
C1486       C  0.22997664  0.41632544  0.34168081    -0.08100
C1487       C  0.20092085  0.41163514  0.36135895    -0.02600
C1488       C  0.17712249  0.38502242  0.35340290     0.04200
N1489       N  0.14645946  0.38066622  0.37211734     0.66700
H1490       H  0.16432595  0.34250179  0.32063378     0.15600
H1491       H  0.24785049  0.43760092  0.34723453     0.15300
N1492       N  0.26454265  0.40237939  0.29377311     0.74400
O1493       O  0.11915823  0.39416742  0.36142866    -0.39100
O1494       O  0.14490559  0.35653794  0.39375737    -0.39000
O1495       O  0.26272510  0.42818784  0.27392093    -0.39700
O1496       O  0.29355581  0.39175263  0.30295695    -0.39800
C1497       C  0.35752806  0.20539662  0.31788600    -0.12000
C1498       C  0.33974723  0.23774941  0.31473177     0.05000
C1499       C  0.35064130  0.26728740  0.33387600    -0.07300
C1500       C  0.37866290  0.26421369  0.35492203    -0.08100
C1501       C  0.39621816  0.23226865  0.35775918    -0.02600
C1502       C  0.38573413  0.20261521  0.33923210     0.04200
N1503       N  0.40354375  0.16970380  0.34225863     0.66700
H1504       H  0.34992350  0.18250836  0.30334713     0.15600
H1505       H  0.38638107  0.28682360  0.36981659     0.15300
N1506       N  0.33273015  0.30025477  0.33380484     0.74400
O1507       O  0.39691066  0.14955886  0.36642317    -0.39100
O1508       O  0.43109687  0.16547753  0.32652404    -0.39000
O1509       O  0.31196105  0.30624643  0.35703023    -0.39700
O1510       O  0.34611938  0.32637765  0.31904558    -0.39800
C1511       C  0.36348630  0.42987271  0.17716468    -0.12000
C1512       C  0.38361618  0.42266997  0.14932554     0.05000
C1513       C  0.37229583  0.39683925  0.12644720    -0.07300
C1514       C  0.34177770  0.37823196  0.13233356    -0.08100
C1515       C  0.32203929  0.38491247  0.16065257    -0.02600
C1516       C  0.33275807  0.41186161  0.18268217     0.04200
N1517       N  0.31259094  0.42199540  0.21048687     0.66700
H1518       H  0.37153655  0.45012900  0.19461125     0.15600
H1519       H  0.33435009  0.35723447  0.11541078     0.15300
N1520       N  0.39150419  0.38880779  0.09735988     0.74400
O1521       O  0.32274623  0.41327615  0.23893614    -0.39100
O1522       O  0.29335481  0.44865286  0.20763069    -0.39000
O1523       O  0.40775734  0.35994948  0.09606573    -0.39700
O1524       O  0.38414864  0.40448922  0.07072259    -0.39800
C1525       C  0.10460666  0.23537658  0.03033072    -0.12000
C1526       C  0.08753370  0.26794043  0.02842668     0.05000
C1527       C  0.09926855  0.29655942  0.04794575    -0.07300
C1528       C  0.12747759  0.29205862  0.06896022    -0.08100
C1529       C  0.14426072  0.25923102  0.07146472    -0.02600
C1530       C  0.13251155  0.23065702  0.05162843     0.04200
N1531       N  0.14905140  0.19691901  0.05186768     0.66700
H1532       H  0.09628513  0.21342371  0.01490753     0.15600
H1533       H  0.13559758  0.31418170  0.08425791     0.15300
N1534       N  0.08277209  0.33029056  0.04706320     0.74400
O1535       O  0.13488788  0.17146530  0.06697267    -0.39100
O1536       O  0.17035870  0.19007287  0.02931343    -0.39000
O1537       O  0.06194245  0.33798187  0.06979072    -0.39700
O1538       O  0.09616852  0.35506983  0.03040115    -0.39800
C1539       C  0.29766626  0.13418349  0.06570892    -0.12000
C1540       C  0.26725370  0.13216675  0.08466313     0.05000
C1541       C  0.24274891  0.10580128  0.07612382    -0.07300
C1542       C  0.24891220  0.08267337  0.04976824    -0.08100
C1543       C  0.27907342  0.08482541  0.03148256    -0.02600
C1544       C  0.30361438  0.11068140  0.03933963     0.04200
N1545       N  0.33472480  0.11277841  0.02081559     0.66700
H1546       H  0.31692746  0.15404784  0.07128765     0.15600
H1547       H  0.23017468  0.06235264  0.04382845     0.15300
N1548       N  0.21186539  0.10095610  0.09438720     0.74400
O1549       O  0.33533283  0.13064517  0.99438323    -0.39100
O1550       O  0.35762134  0.08985935  0.02571220    -0.39000
O1551       O  0.18431445  0.11193902  0.08193973    -0.39700
O1552       O  0.21062247  0.07660261  0.11583859    -0.39800
C1553       C  0.07786558  0.87425287  0.26908574    -0.12000
C1554       C  0.07113286  0.90102678  0.24612132     0.05000
C1555       C  0.08579281  0.89950678  0.21440832    -0.07300
C1556       C  0.10734081  0.87160393  0.20624849    -0.08100
C1557       C  0.11509620  0.84489343  0.22929089    -0.02600
C1558       C  0.09967524  0.84621269  0.26107573     0.04200
N1559       N  0.10653429  0.82035692  0.28602223     0.66700
H1560       H  0.06625502  0.87529336  0.29343619     0.15600
H1561       H  0.11825761  0.87119510  0.18158801     0.15300
N1562       N  0.07930823  0.92620449  0.19014195     0.74400
O1563       O  0.12875669  0.82742674  0.30766508    -0.39100
O1564       O  0.08399579  0.79726241  0.29241990    -0.39000
O1565       O  0.10214329  0.94918355  0.18457514    -0.39700
O1566       O  0.05708831  0.92024762  0.16821084    -0.39800
C1567       C  0.86168658  0.88905854  0.20835266    -0.12000
C1568       C  0.85251327  0.86359881  0.23261340     0.05000
C1569       C  0.86417706  0.86898648  0.26550524    -0.07300
C1570       C  0.88534463  0.89792369  0.27296694    -0.08100
C1571       C  0.89541152  0.92182574  0.24840927    -0.02600
C1572       C  0.88297078  0.91790215  0.21607244     0.04200
N1573       N  0.89391468  0.94175159  0.19052420     0.66700
H1574       H  0.85319700  0.88611871  0.18298986     0.15600
H1575       H  0.89549416  0.90072213  0.29778946     0.15300
N1576       N  0.85559952  0.84521496  0.29176140     0.74400
O1577       O  0.92254202  0.93700279  0.17684478    -0.39100
O1578       O  0.87958281  0.97157791  0.18781262    -0.39000
O1579       O  0.87774232  0.82320282  0.30129415    -0.39700
O1580       O  0.83185144  0.85368413  0.31133013    -0.39800
C1581       C  0.87930198  0.13141913  0.20045751    -0.12000
C1582       C  0.86916834  0.15609512  0.22490018     0.05000
C1583       C  0.88485026  0.15400649  0.25656230    -0.07300
C1584       C  0.90862431  0.12725169  0.26328521    -0.08100
C1585       C  0.91753396  0.10248469  0.23915641    -0.02600
C1586       C  0.90339708  0.10500329  0.20735611     0.04200
N1587       N  0.91340115  0.08064978  0.18200683     0.66700
H1588       H  0.86847527  0.13248390  0.17581506     0.15600
H1589       H  0.91977789  0.12537765  0.28776643     0.15300
N1590       N  0.87638149  0.17779459  0.28277189     0.74400
O1591       O  0.89713365  0.05186401  0.17863416    -0.39100
O1592       O  0.94246656  0.08390893  0.16875610    -0.39000
O1593       O  0.85690215  0.16687481  0.30554891    -0.39700
O1594       O  0.89622402  0.20355619  0.28860295    -0.39800
C1595       C  0.10723502  0.09884607  0.27646251    -0.12000
C1596       C  0.09368965  0.07735332  0.25166427     0.05000
C1597       C  0.10927740  0.07605659  0.22040780    -0.07300
C1598       C  0.13718796  0.09805222  0.21361182    -0.08100
C1599       C  0.15014743  0.12119827  0.23791990    -0.02600
C1600       C  0.13550702  0.12054558  0.27005311     0.04200
N1601       N  0.14751857  0.14294406  0.29607563     0.66700
H1602       H  0.09538851  0.09923185  0.30072340     0.15600
H1603       H  0.14839876  0.09746361  0.18907633     0.15300
N1604       N  0.09695908  0.05221706  0.19558466     0.74400
O1605       O  0.13166116  0.17137213  0.30194485    -0.39100
O1606       O  0.16517249  0.12925212  0.31883391    -0.39000
O1607       O  0.06953517  0.05906202  0.18052545    -0.39700
O1608       O  0.10900623  0.02124104  0.19424676    -0.39800
loop_ 
_geom_bond_atom_site_label_1 
_geom_bond_atom_site_label_2 
_geom_bond_distance 
_geom_bond_site_symmetry_2 
_ccdc_geom_bond_type 
N1            C6   1.351   1_545  A
N1            C5   1.351       .  A
N1           H33   1.036       .  S
N2            C9   1.350   1_455  A
N2           C10   1.349       .  A
N3            C8   1.347       .  A
N3            C7   1.346   1_565  A
N3           H34   1.036       .  S
N4           C11   1.347       .  A
N4           C12   1.350   1_655  A
C5           C13   1.387       .  A
C5           C21   1.413       .  A
C6           C22   1.411       .  A
C6           C14   1.386       .  A
C7           C15   1.389       .  A
C7           C24   1.406       .  A
C8           C23   1.403       .  A
C8           C16   1.385       .  A
C9           C21   1.409       .  A
C9           C17   1.386       .  A
C10          C24   1.411       .  A
C10          C18   1.387       .  A
C11          C19   1.389       .  A
C11          C22   1.410       .  A
C12          C20   1.384   1_455  A
C12          C23   1.404       .  A
C13          C14   1.377   1_545  A
C13          H25   1.082       .  S
C14          H26   1.082       .  S
C15          C16   1.374   1_545  A
C15          H27   1.082       .  S
C16          H28   1.082       .  S
C17          C18   1.372   1_655  A
C17          H29   1.082       .  S
C18          H30   1.082       .  S
C19          C20   1.366       .  A
C19          H31   1.082       .  S
C20          H32   1.082   1_655  S
C21        C1585   1.481       .  S
C22        C1571   1.476       .  S
C23        C1554   1.473       .  S
C24        C1596   1.469       .  S
Zr35         O36   2.436       .  S
Zr35         O37   2.427       .  S
Zr35         O38   2.427       .  S
Zr35         O41   2.427       .  S
Zr35         O43   2.381       .  S
Zr35         O44   2.379       .  S
Zr35         O45   2.409       .  S
Zr35         O46   2.395       .  S
O36          H92   0.988       .  S
O36         H100   0.991       .  S
O37          C57   1.280       .  A
O38          C59   1.280       .  A
O39         Zr49   2.455       .  S
O39          C58   1.289       .  A
O40         Zr48   2.450       .  S
O40          C59   1.288       .  A
O41          C58   1.283       .  A
O42         Zr50   2.416       .  S
O42          C57   1.282       .  A
O43         Zr48   2.401       .  S
O43         Zr50   2.382       .  S
O44         Zr49   2.391       .  S
O44         Zr50   2.379       .  S
O44          H79   0.967       .  S
O45         Zr48   2.411       .  S
O45         Zr65   2.393       .  S
O45          H82   0.959       .  S
O46         Zr49   2.381       .  S
O46         Zr65   2.385       .  S
Zr47         O72   2.442       .  S
Zr47         O66   2.453       .  S
Zr47         O74   2.445       .  S
Zr47         O62   2.439       .  S
Zr47         O53   2.403       .  S
Zr47         O54   2.416       .  S
Zr47         O55   2.380       .  S
Zr47         O56   2.386       .  S
Zr48         O67   2.436       .  S
Zr48         O60   2.437       .  S
Zr48         O61   2.466       .  S
Zr48         O54   2.399       .  S
Zr48         O55   2.404       .  S
Zr49         O51   2.434       .  S
Zr49         O73   2.441       .  S
Zr49         O75   2.421       .  S
Zr49         O53   2.397       .  S
Zr49         O56   2.413       .  S
Zr50         O76   2.435       .  S
Zr50         O77   2.436       .  S
Zr50         O52   2.437       .  S
Zr50         O53   2.389       .  S
Zr50         O54   2.391       .  S
O51          H88   0.990       .  S
O52          H83   0.990       .  S
O52          H97   0.990       .  S
O54          H80   0.961       .  S
O55         Zr65   2.385       .  S
O56         Zr65   2.382       .  S
O56          H81   0.956       .  S
C57        C1484   1.480       .  S
C58        C1498   1.487       .  S
C59        C1515   1.478       .  S
O60          H96   0.990       .  S
O61          C63   1.291       .  A
O62          C63   1.284       .  A
C63        C1529   1.491       .  S
O64         Zr65   2.436       .  S
O64          H93   0.990       .  S
Zr65         O68   2.434       .  S
Zr65         O69   2.439       .  S
Zr65         O70   2.421       .  S
O66          C71   1.286       .  A
O67          H84   0.990       .  S
O67          H99   0.990       .  S
O68          H85   0.990       .  S
O69          H89   0.990       .  S
O69          H98   0.990       .  S
O70          C71   1.282       .  A
C71        C1540   1.498       .  S
O72          H91   0.990       .  S
O72          H95   0.991       .  S
O73          H87   0.990       .  S
O73          H94   0.990       .  S
O74          C78   1.286       .  A
O75          C78   1.281       .  A
O76          H86   0.990       .  S
O77          H90   0.990       .  S
C78        C1599   1.479       .  S
Zr101       O102   2.436       .  S
Zr101       O103   2.446       .  S
Zr101       O104   2.457       .  S
Zr101       O107   2.443       .  S
Zr101       O109   2.382       .  S
Zr101       O110   2.386       .  S
Zr101       O111   2.413       .  S
Zr101       O112   2.408       .  S
O102        H158   0.989       .  S
O102        H166   0.990       .  S
O103        C123   1.284       .  A
O104        C125   1.288       .  A
O105       Zr115   2.433       .  S
O105        C124   1.286       .  A
O106       Zr114   2.448       .  S
O106        C125   1.287       .  A
O107        C124   1.286       .  A
O108       Zr116   2.423       .  S
O108        C123   1.284       .  A
O109       Zr114   2.398       .  S
O109       Zr116   2.378       .  S
O110       Zr115   2.398       .  S
O110       Zr116   2.373       .  S
O110        H145   0.964       .  S
O111       Zr114   2.404       .  S
O111       Zr131   2.399       .  S
O111        H148   0.969       .  S
O112       Zr115   2.397       .  S
O112       Zr131   2.399       .  S
Zr113       O138   2.442       .  S
Zr113       O132   2.451       .  S
Zr113       O140   2.440       .  S
Zr113       O128   2.434       .  S
Zr113       O119   2.403       .  S
Zr113       O120   2.416       .  S
Zr113       O121   2.382       .  S
Zr113       O122   2.378       .  S
Zr114       O133   2.436       .  S
Zr114       O126   2.435       .  S
Zr114       O127   2.433       .  S
Zr114       O120   2.411       .  S
Zr114       O121   2.405       .  S
Zr115       O117   2.438       .  S
Zr115       O139   2.437       .  S
Zr115       O141   2.445       .  S
Zr115       O119   2.388       .  S
Zr115       O122   2.398       .  S
Zr116       O142   2.435       .  S
Zr116       O143   2.435       .  S
Zr116       O118   2.436       .  S
Zr116       O119   2.394       .  S
Zr116       O120   2.391       .  S
O117        H154   0.990       .  S
O118        H149   0.990       .  S
O118        H163   0.989       .  S
O120        H146   0.939       .  S
O121       Zr131   2.378       .  S
O122       Zr131   2.378       .  S
O122        H147   0.977       .  S
C123       C1414   1.498       .  S
C124       C1431   1.492       .  S
C125       C1445   1.497       .  S
O126        H162   0.990       .  S
O127        C129   1.284       .  A
O128        C129   1.283       .  A
C129       C1459   1.476       .  S
O130       Zr131   2.440       .  S
O130        H159   0.990       .  S
Zr131       O134   2.437       .  S
Zr131       O135   2.439       .  S
Zr131       O136   2.435       .  S
O132        C137   1.284       .  A
O133        H150   0.990       .  S
O133        H165   0.990       .  S
O134        H151   0.990       .  S
O135        H155   0.990       .  S
O135        H164   0.990       .  S
O136        C137   1.286       .  A
C137       C1473   1.500       .  S
O138        H157   0.991       .  S
O138        H161   0.990       .  S
O139        H153   0.990       .  S
O139        H160   0.990       .  S
O140        C144   1.287       .  A
O141        C144   1.286       .  A
O142        H152   0.990       .  S
O143        H156   0.990       .  S
C144       C1582   1.499       .  S
Zr167       O168   2.442       .  S
Zr167       O169   2.456       .  S
Zr167       O170   2.437       .  S
Zr167       O173   2.420       .  S
Zr167       O175   2.374       .  S
Zr167       O176   2.383       .  S
Zr167       O177   2.408       .  S
Zr167       O178   2.401       .  S
O168        H224   0.989       .  S
O168        H232   0.990       .  S
O169        C189   1.288       .  A
O170        C191   1.284       .  A
O171       Zr181   2.454       .  S
O171        C190   1.288       .  A
O172       Zr180   2.465       .  S
O172        C191   1.290       .  A
O173        C190   1.284       .  A
O174       Zr182   2.415       .  S
O174        C189   1.280       .  A
O175       Zr180   2.402       .  S
O175       Zr182   2.382       .  S
O176       Zr181   2.399       .  S
O176       Zr182   2.373       .  S
O176        H211   0.973       .  S
O177       Zr180   2.404       .  S
O177       Zr197   2.396       .  S
O177        H214   0.970       .  S
O178       Zr181   2.398       .  S
O178       Zr197   2.385       .  S
Zr179       O204   2.442       .  S
Zr179       O198   2.450       .  S
Zr179       O206   2.411       .  S
Zr179       O194   2.429       .  S
Zr179       O185   2.413       .  S
Zr179       O186   2.404       .  S
Zr179       O187   2.378       .  S
Zr179       O188   2.380       .  S
Zr180       O199   2.435       .  S
Zr180       O192   2.435       .  S
Zr180       O193   2.460       .  S
Zr180       O186   2.399       .  S
Zr180       O187   2.406       .  S
Zr181       O183   2.435       .  S
Zr181       O205   2.437       .  S
Zr181       O207   2.467       .  S
Zr181       O185   2.399       .  S
Zr181       O188   2.394       .  S
Zr182       O208   2.435       .  S
Zr182       O209   2.434       .  S
Zr182       O184   2.438       .  S
Zr182       O185   2.405       .  S
Zr182       O186   2.388       .  S
O183        H220   0.990       .  S
O184        H215   0.990       .  S
O184        H229   0.990       .  S
O186        H212   0.971       .  S
O187       Zr197   2.386       .  S
O188       Zr197   2.378       .  S
O188        H213   0.961       .  S
C189       C1361   1.496       .  S
C190       C1375   1.495       .  S
C191       C1344   1.492       .  S
O192        H228   0.990       .  S
O193        C195   1.290       .  A
O194        C195   1.285       .  A
C195       C1568   1.498       .  S
O196       Zr197   2.437       .  S
O196        H225   0.990       .  S
Zr197       O200   2.436       .  S
Zr197       O201   2.437       .  S
Zr197       O202   2.413       .  S
O198        C203   1.287       .  A
O199        H216   0.990       .  S
O199        H231   0.990       .  S
O200        H217   0.990       .  S
O201        H221   0.990       .  S
O201        H230   0.990       .  S
O202        C203   1.278       .  A
C203       C1389   1.493       .  S
O204        H223   0.989       .  S
O204        H227   0.991       .  S
O205        H219   0.990       .  S
O205        H226   0.990       .  S
O206        C210   1.278       .  A
O207        C210   1.291       .  A
O208        H218   0.990       .  S
O209        H222   0.990       .  S
C210       C1400   1.485       .  S
Zr233       O234   2.440       .  S
Zr233       O235   2.441       .  S
Zr233       O236   2.424       .  S
Zr233       O239   2.413       .  S
Zr233       O241   2.375       .  S
Zr233       O242   2.371       .  S
Zr233       O243   2.402       .  S
Zr233       O244   2.400       .  S
O234        H290   0.990       .  S
O234        H298   0.990       .  S
O235        C255   1.287       .  A
O236        C257   1.282       .  A
O237       Zr247   2.413       .  S
O237        C256   1.279       .  A
O238       Zr246   2.426       .  S
O238        C257   1.283       .  A
O239        C256   1.284       .  A
O240       Zr248   2.423       .  S
O240        C255   1.281       .  A
O241       Zr246   2.391       .  S
O241       Zr248   2.378       .  S
O242       Zr247   2.393       .  S
O242       Zr248   2.375       .  S
O242        H277   0.967       .  S
O243       Zr246   2.391       .  S
O243       Zr263   2.395       .  S
O243        H280   0.971       .  S
O244       Zr247   2.389       .  S
O244       Zr263   2.400       .  S
Zr245       O270   2.440       .  S
Zr245       O264   2.436       .  S
Zr245       O272   2.423       .  S
Zr245       O260   2.422       .  S
Zr245       O251   2.394       .  S
Zr245       O252   2.404       .  S
Zr245       O253   2.378       .  S
Zr245       O254   2.378       .  S
Zr246       O265   2.438       .  S
Zr246       O258   2.436       .  S
Zr246       O259   2.410       .  S
Zr246       O252   2.400       .  S
Zr246       O253   2.399       .  S
Zr247       O249   2.435       .  S
Zr247       O271   2.439       .  S
Zr247       O273   2.414       .  S
Zr247       O251   2.390       .  S
Zr247       O254   2.391       .  S
Zr248       O274   2.433       .  S
Zr248       O275   2.435       .  S
Zr248       O250   2.436       .  S
Zr248       O251   2.392       .  S
Zr248       O252   2.391       .  S
O249        H286   0.990       .  S
O250        H281   0.990       .  S
O250        H295   0.990       .  S
O252        H278   0.966       .  S
O253       Zr263   2.373       .  S
O254       Zr263   2.379       .  S
O254        H279   0.966       .  S
C255       C1274   1.494       .  S
C256       C1288   1.480       .  S
C257       C1305   1.471       .  S
O258        H294   0.990       .  S
O259        C261   1.279       .  A
O260        C261   1.283       .  A
C261       C1319   1.471       .  S
O262       Zr263   2.436       .  S
O262        H291   0.990       .  S
Zr263       O266   2.437       .  S
Zr263       O267   2.437       .  S
Zr263       O268   2.433       .  S
O264        C269   1.282       .  A
O265        H282   0.990       .  S
O265        H297   0.990       .  S
O266        H283   0.990       .  S
O267        H287   0.990       .  S
O267        H296   0.990       .  S
O268        C269   1.286       .  A
C269       C1330   1.497       .  S
O270        H289   0.990       .  S
O270        H293   0.990       .  S
O271        H285   0.990       .  S
O271        H292   0.989       .  S
O272        C276   1.285       .  A
O273        C276   1.279       .  A
O274        H284   0.990       .  S
O275        H288   0.990       .  S
C276       C1557   1.481       .  S
N299        C304   1.352       .  A
N299        C303   1.352       .  A
N299        H331   1.037       .  S
N300        C307   1.346   1_556  A
N300        C308   1.348   1_566  A
N301        C306   1.350       .  A
N301        C305   1.353       .  A
N301        H332   1.038       .  S
N302        C309   1.353       .  A
N302        C310   1.352   1_565  A
C303        C311   1.387       .  A
C303        C319   1.412   1_556  A
C304        C320   1.413       .  A
C304        C312   1.388       .  A
C305        C313   1.386       .  A
C305        C322   1.412   1_556  A
C306        C321   1.413       .  A
C306        C314   1.388       .  A
C307        C319   1.405       .  A
C307        C315   1.387       .  A
C308        C322   1.407       .  A
C308        C316   1.386       .  A
C309        C317   1.385       .  A
C309        C320   1.414       .  A
C310        C318   1.387       .  A
C310        C321   1.415       .  A
C311        C312   1.369       .  A
C311        H323   1.082       .  S
C312        H324   1.082       .  S
C313        C314   1.374       .  A
C313        H325   1.082       .  S
C314        H326   1.082       .  S
C315        C316   1.369   1_565  A
C315        H327   1.082       .  S
C316        H328   1.082       .  S
C317        C318   1.372   1_565  A
C317        H329   1.082       .  S
C318        H330   1.082       .  S
C319       C1316   1.471       .  S
C320       C1263   1.483       .  S
C321       C1246   1.479       .  S
C322       C1543   1.480       .  S
N333        C338   1.358   1_656  A
N333        C337   1.355   1_556  A
N333        H365   1.039       .  S
N334        C341   1.355       .  A
N334        C342   1.356       .  A
N335        C340   1.353   1_655  A
N335        C339   1.353       .  A
N335        H366   1.037       .  S
N336        C343   1.352       .  A
N336        C344   1.351       .  A
C337        C345   1.387       .  A
C337        C353   1.420       .  A
C338        C354   1.421       .  A
C338        C346   1.386       .  A
C339        C347   1.388       .  A
C339        C356   1.416       .  A
C340        C355   1.416       .  A
C340        C348   1.388       .  A
C341        C353   1.421   1_556  A
C341        C349   1.387       .  A
C342        C356   1.420       .  A
C342        C350   1.386       .  A
C343        C351   1.386       .  A
C343        C354   1.413   1_556  A
C344        C352   1.386       .  A
C344        C355   1.413       .  A
C345        C346   1.379   1_655  A
C345        H357   1.082       .  S
C346        H358   1.082       .  S
C347        C348   1.376   1_655  A
C347        H359   1.082       .  S
C348        H360   1.082       .  S
C349        C350   1.375       .  A
C349        H361   1.082       .  S
C350        H362   1.082       .  S
C351        C352   1.372       .  A
C351        H363   1.082       .  S
C352        H364   1.082       .  S
C353       C1470   1.498       .  S
C354       C1526   1.495       .  S
C355       C1232   1.485       .  S
C356       C1218   1.493       .  S
N367        C372   1.359   1_566  A
N367        C371   1.358   1_556  A
N367        H399   1.038       .  S
N368        C375   1.353       .  A
N368        C376   1.353       .  A
N369        C374   1.355   1_565  A
N369        C373   1.354       .  A
N369        H400   1.035       .  S
N370        C377   1.352       .  A
N370        C378   1.353       .  A
C371        C379   1.387       .  A
C371        C387   1.424       .  A
C372        C388   1.425       .  A
C372        C380   1.387       .  A
C373        C381   1.389       .  A
C373        C390   1.420       .  A
C374        C389   1.418       .  A
C374        C382   1.387       .  A
C375        C387   1.417   1_556  A
C375        C383   1.387       .  A
C376        C390   1.416       .  A
C376        C384   1.386       .  A
C377        C385   1.387       .  A
C377        C388   1.416   1_556  A
C378        C386   1.385       .  A
C378        C389   1.415       .  A
C379        C380   1.379   1_565  A
C379        H391   1.082       .  S
C380        H392   1.082       .  S
C381        C382   1.375   1_565  A
C381        H393   1.082       .  S
C382        H394   1.082       .  S
C383        C384   1.370       .  A
C383        H395   1.082       .  S
C384        H396   1.082       .  S
C385        C386   1.371       .  A
C385        H397   1.082       .  S
C386        H398   1.082       .  S
C387       C1403   1.495       .  S
C388       C1456   1.499       .  S
C389       C1207   1.491       .  S
C390       C1193   1.488       .  S
N401        C406   1.352       .  A
N401        C405   1.351       .  A
N401        H433   1.038       .  S
N402        C409   1.353   1_655  A
N402        C410   1.353       .  A
N403        C408   1.353       .  A
N403        C407   1.353       .  A
N403        H434   1.035       .  S
N404        C411   1.353   1_656  A
N404        C412   1.352   1_556  A
C405        C413   1.387       .  A
C405        C421   1.411       .  A
C406        C422   1.413       .  A
C406        C414   1.388       .  A
C407        C415   1.387       .  A
C407        C424   1.417       .  A
C408        C423   1.417   1_556  A
C408        C416   1.387       .  A
C409        C421   1.415       .  A
C409        C417   1.386       .  A
C410        C424   1.417       .  A
C410        C418   1.387       .  A
C411        C419   1.385       .  A
C411        C422   1.414   1_554  A
C412        C420   1.388       .  A
C412        C423   1.417       .  A
C413        C414   1.375       .  A
C413        H425   1.083       .  S
C414        H426   1.082       .  S
C415        C416   1.377       .  A
C415        H427   1.082       .  S
C416        H428   1.082       .  S
C417        C418   1.371   1_455  A
C417        H429   1.082       .  S
C418        H430   1.082       .  S
C419        C420   1.373   1_455  A
C419        H431   1.082       .  S
C420        H432   1.082       .  S
C421       C1162   1.484       .  S
C422       C1333   1.485   1_556  S
C423       C1386   1.485       .  S
C424       C1179   1.489       .  S
Zr435       O436   2.438       .  S
Zr435       O437   2.437       .  S
Zr435       O438   2.436       .  S
Zr435       O441   2.396       .  S
Zr435       O443   2.377       .  S
Zr435       O444   2.386       .  S
Zr435       O445   2.403       .  S
Zr435       O446   2.407       .  S
O436        H492   0.990       .  S
O436        H500   0.990       .  S
O437        C457   1.284       .  A
O438        C459   1.282       .  A
O439       Zr449   2.426       .  S
O439        C458   1.283       .  A
O440       Zr448   2.433       .  S
O440        C459   1.286       .  A
O441        C458   1.278       .  A
O442       Zr450   2.427       .  S
O442        C457   1.284       .  A
O443       Zr448   2.392       .  S
O443       Zr450   2.379       .  S
O444       Zr449   2.390       .  S
O444       Zr450   2.373       .  S
O444        H479   0.964       .  S
O445       Zr448   2.395       .  S
O445       Zr465   2.399       .  S
O445        H482   0.972       .  S
O446       Zr449   2.395       .  S
O446       Zr465   2.397       .  S
Zr447       O472   2.435       .  S
Zr447       O466   2.434       .  S
Zr447       O474   2.434       .  S
Zr447       O462   2.419       .  S
Zr447       O453   2.399       .  S
Zr447       O454   2.406       .  S
Zr447       O455   2.378       .  S
Zr447       O456   2.378       .  S
Zr448       O467   2.436       .  S
Zr448       O460   2.434       .  S
Zr448       O461   2.430       .  S
Zr448       O454   2.397       .  S
Zr448       O455   2.394       .  S
Zr449       O451   2.436       .  S
Zr449       O473   2.437       .  S
Zr449       O475   2.445       .  S
Zr449       O453   2.386       .  S
Zr449       O456   2.392       .  S
Zr450       O476   2.436       .  S
Zr450       O477   2.437       .  S
Zr450       O452   2.436       .  S
Zr450       O453   2.401       .  S
Zr450       O454   2.386       .  S
O451        H488   0.990       .  S
O452        H483   0.990       .  S
O452        H497   0.990       .  S
O454        H480   0.971       .  S
O455       Zr465   2.373       .  S
O456       Zr465   2.383       .  S
O456        H481   0.956       .  S
C457       C1165   1.489       .  S
C458       C1260   1.465       .  S
C459       C1148   1.494       .  S
O460        H496   0.990       .  S
O461        C463   1.284       .  A
O462        C463   1.283       .  A
C463       C1106   1.481       .  S
O464       Zr465   2.441       .  S
O464        H493   0.990       .  S
Zr465       O468   2.437       .  S
Zr465       O469   2.441       .  S
Zr465       O470   2.439       .  S
O466        C471   1.284       .  A
O467        H484   0.990       .  S
O467        H499   0.990       .  S
O468        H485   0.990       .  S
O469        H489   0.990       .  S
O469        H498   0.989       .  S
O470        C471   1.286       .  A
C471       C1123   1.495       .  S
O472        H491   0.990       .  S
O472        H495   0.991       .  S
O473        H487   0.990       .  S
O473        H494   0.990       .  S
O474        C478   1.285       .  A
O475        C478   1.288       .  A
O476        H486   0.990       .  S
O477        H490   0.990       .  S
C478       C1134   1.500       .  S
N501        C506   1.354   1_655  A
N501        C505   1.352       .  A
N501        H533   1.039       .  S
N502        C509   1.350   1_545  A
N502        C510   1.351       .  A
N503        C508   1.355       .  A
N503        C507   1.355   1_455  A
N503        H534   1.040       .  S
N504        C511   1.351       .  A
N504        C512   1.351   1_565  A
C505        C513   1.388       .  A
C505        C521   1.414       .  A
C506        C522   1.413       .  A
C506        C514   1.387       .  A
C507        C515   1.386       .  A
C507        C524   1.417       .  A
C508        C523   1.418       .  A
C508        C516   1.388       .  A
C509        C521   1.409       .  A
C509        C517   1.386       .  A
C510        C524   1.412       .  A
C510        C518   1.386       .  A
C511        C519   1.384       .  A
C511        C522   1.410       .  A
C512        C520   1.387       .  A
C512        C523   1.413       .  A
C513        C514   1.372   1_655  A
C513        H525   1.082       .  S
C514        H526   1.082       .  S
C515        C516   1.377   1_655  A
C515        H527   1.082       .  S
C516        H528   1.082       .  S
C517        C518   1.373   1_565  A
C517        H529   1.082       .  S
C518        H530   1.082       .  S
C519        C520   1.371   1_565  A
C519        H531   1.083       .  S
C520        H532   1.082       .  S
C521       C1064   1.481       .  S
C522       C1151   1.485       .  S
C523       C1092   1.487       .  S
C524       C1078   1.490       .  S
Zr535       O536   2.444       .  S
Zr535       O537   2.438       .  S
Zr535       O538   2.431       .  S
Zr535       O541   2.429       .  S
Zr535       O543   2.373       .  S
Zr535       O544   2.385       .  S
Zr535       O545   2.411       .  S
Zr535       O546   2.400       .  S
O536        H592   0.990       .  S
O536        H600   0.991       .  S
O537        C557   1.284       .  A
O538        C559   1.281       .  A
O539       Zr549   2.458       .  S
O539        C558   1.289       .  A
O540       Zr548   2.448       .  S
O540        C559   1.288       .  A
O541        C558   1.283       .  A
O542       Zr550   2.400       .  S
O542        C557   1.277       .  A
O543       Zr548   2.397       .  S
O543       Zr550   2.379       .  S
O544       Zr549   2.402       .  S
O544       Zr550   2.382       .  S
O544        H579   0.969       .  S
O545       Zr548   2.404       .  S
O545       Zr565   2.390       .  S
O545        H582   0.959       .  S
O546       Zr549   2.391       .  S
O546       Zr565   2.389       .  S
Zr547       O572   2.441       .  S
Zr547       O566   2.432       .  S
Zr547       O574   2.433       .  S
Zr547       O562   2.440       .  S
Zr547       O553   2.401       .  S
Zr547       O554   2.403       .  S
Zr547       O555   2.382       .  S
Zr547       O556   2.385       .  S
Zr548       O567   2.437       .  S
Zr548       O560   2.435       .  S
Zr548       O561   2.442       .  S
Zr548       O554   2.405       .  S
Zr548       O555   2.401       .  S
Zr549       O551   2.435       .  S
Zr549       O573   2.439       .  S
Zr549       O575   2.462       .  S
Zr549       O553   2.398       .  S
Zr549       O556   2.399       .  S
Zr550       O576   2.434       .  S
Zr550       O577   2.434       .  S
Zr550       O552   2.436       .  S
Zr550       O553   2.387       .  S
Zr550       O554   2.375       .  S
O551        H588   0.990       .  S
O552        H583   0.989       .  S
O552        H597   0.990       .  S
O554        H580   0.966       .  S
O555       Zr565   2.375       .  S
O556       Zr565   2.382       .  S
O556        H581   0.966       .  S
C557       C1036   1.476       .  S
C558       C1050   1.482       .  S
C559       C1022   1.476       .  S
O560        H596   0.990       .  S
O561        C563   1.288       .  A
O562        C563   1.285       .  A
C563       C1095   1.479       .  S
O564       Zr565   2.441       .  S
O564        H593   0.990       .  S
Zr565       O568   2.438       .  S
Zr565       O569   2.439       .  S
Zr565       O570   2.414       .  S
O566        C571   1.280       .  A
O567        H584   0.990       .  S
O567        H599   0.990       .  S
O568        H585   0.990       .  S
O569        H589   0.990       .  S
O569        H598   0.990       .  S
O570        C571   1.282       .  A
C571       C1249   1.489       .  S
O572        H591   0.990       .  S
O572        H595   0.991       .  S
O573        H587   0.989       .  S
O573        H594   0.990       .  S
O574        C578   1.283       .  A
O575        C578   1.289       .  A
O576        H586   0.990       .  S
O577        H590   0.990       .  S
C578       C1235   1.491       .  S
Zr601       O602   2.441       .  S
Zr601       O603   2.461       .  S
Zr601       O604   2.452       .  S
Zr601       O607   2.434       .  S
Zr601       O609   2.378       .  S
Zr601       O610   2.386       .  S
Zr601       O611   2.414       .  S
Zr601       O612   2.410       .  S
O602        H658   0.990       .  S
O602        H666   0.990       .  S
O603        C623   1.287       .  A
O604        C625   1.288       .  A
O605       Zr615   2.449       .  S
O605        C624   1.288       .  A
O606       Zr614   2.445       .  S
O606        C625   1.285       .  A
O607        C624   1.286       .  A
O608       Zr616   2.449       .  S
O608        C623   1.287       .  A
O609       Zr614   2.405       .  S
O609       Zr616   2.383       .  S
O610       Zr615   2.403       .  S
O610       Zr616   2.374       .  S
O610        H645   0.979       .  S
O611       Zr614   2.401       .  S
O611       Zr631   2.398       .  S
O611        H648   0.962       .  S
O612       Zr615   2.395       .  S
O612       Zr631   2.395       .  S
Zr613       O638   2.440       .  S
Zr613       O632   2.474       .  S
Zr613       O640   2.458       .  S
Zr613       O628   2.447       .  S
Zr613       O619   2.415       .  S
Zr613       O620   2.417       .  S
Zr613       O621   2.378       .  S
Zr613       O622   2.382       .  S
Zr614       O633   2.436       .  S
Zr614       O626   2.434       .  S
Zr614       O627   2.435       .  S
Zr614       O620   2.401       .  S
Zr614       O621   2.399       .  S
Zr615       O617   2.435       .  S
Zr615       O639   2.438       .  S
Zr615       O641   2.459       .  S
Zr615       O619   2.391       .  S
Zr615       O622   2.402       .  S
Zr616       O642   2.437       .  S
Zr616       O643   2.436       .  S
Zr616       O618   2.438       .  S
Zr616       O619   2.409       .  S
Zr616       O620   2.402       .  S
O617        H654   0.990       .  S
O618        H649   0.990       .  S
O618        H663   0.990       .  S
O620        H646   0.972       .  S
O621       Zr631   2.374       .  S
O622       Zr631   2.379       .  S
O622        H647   0.965       .  S
C623        C994   1.512       .  S
C624       C1008   1.495       .  S
C625        C980   1.497       .  S
O626        H662   0.990       .  S
O627        C629   1.284       .  A
O628        C629   1.290       .  A
C629       C1081   1.498       .  S
O630       Zr631   2.439       .  S
O630        H659   0.990       .  S
Zr631       O634   2.437       .  S
Zr631       O635   2.438       .  S
Zr631       O636   2.438       .  S
O632        C637   1.291       .  A
O633        H650   0.990       .  S
O633        H665   0.990       .  S
O634        H651   0.990       .  S
O635        H655   0.990       .  S
O635        H664   0.990       .  S
O636        C637   1.286       .  A
C637       C1221   1.514       .  S
O638        H657   0.990       .  S
O638        H661   0.990       .  S
O639        H653   0.990       .  S
O639        H660   0.990       .  S
O640        C644   1.289       .  A
O641        C644   1.289       .  A
O642        H652   0.990       .  S
O643        H656   0.990       .  S
C644       C1204   1.505       .  S
Zr667       O668   2.441       .  S
Zr667       O669   2.429       .  S
Zr667       O670   2.413       .  S
Zr667       O673   2.406       .  S
Zr667       O675   2.383       .  S
Zr667       O676   2.382       .  S
Zr667       O677   2.402       .  S
Zr667       O678   2.400       .  S
O668        H724   0.990       .  S
O668        H732   0.991       .  S
O669        C689   1.281       .  A
O670        C691   1.280       .  A
O671       Zr681   2.478       .  S
O671        C690   1.294       .  A
O672       Zr680   2.467       .  S
O672        C691   1.290       .  A
O673        C690   1.279       .  A
O674       Zr682   2.433       .  S
O674        C689   1.285       .  A
O675       Zr680   2.404       .  S
O675       Zr682   2.383       .  S
O676       Zr681   2.396       .  S
O676       Zr682   2.377       .  S
O676        H711   0.964       .  S
O677       Zr680   2.403       .  S
O677       Zr697   2.392       .  S
O677        H714   0.961       .  S
O678       Zr681   2.392       .  S
O678       Zr697   2.396       .  S
Zr679       O704   2.440       .  S
Zr679       O698   2.443       .  S
Zr679       O706   2.432       .  S
Zr679       O694   2.437       .  S
Zr679       O685   2.404       .  S
Zr679       O686   2.411       .  S
Zr679       O687   2.380       .  S
Zr679       O688   2.386       .  S
Zr680       O699   2.435       .  S
Zr680       O692   2.434       .  S
Zr680       O693   2.459       .  S
Zr680       O686   2.408       .  S
Zr680       O687   2.401       .  S
Zr681       O683   2.437       .  S
Zr681       O705   2.437       .  S
Zr681       O707   2.461       .  S
Zr681       O685   2.398       .  S
Zr681       O688   2.403       .  S
Zr682       O708   2.436       .  S
Zr682       O709   2.435       .  S
Zr682       O684   2.436       .  S
Zr682       O685   2.392       .  S
Zr682       O686   2.404       .  S
O683        H720   0.990       .  S
O684        H715   0.990       .  S
O684        H729   0.989       .  S
O686        H712   0.967       .  S
O687       Zr697   2.374       .  S
O688       Zr697   2.379       .  S
O688        H713   0.962       .  S
C689        C938   1.487       .  S
C690        C952   1.495       .  S
C691        C966   1.497       .  S
O692        H728   0.990       .  S
O693        C695   1.289       .  A
O694        C695   1.285       .  A
C695       C1190   1.496       .  S
O696       Zr697   2.440       .  S
O696        H725   0.990       .  S
Zr697       O700   2.438       .  S
Zr697       O701   2.438       .  S
Zr697       O702   2.421       .  S
O698        C703   1.284       .  A
O699        H716   0.990       .  S
O699        H731   0.990       .  S
O700        H717   0.990       .  S
O701        H721   0.990       .  S
O701        H730   0.990       .  S
O702        C703   1.284       .  A
C703       C1176   1.491       .  S
O704        H723   0.990       .  S
O704        H727   0.990       .  S
O705        H719   0.990       .  S
O705        H726   0.990       .  S
O706        C710   1.286       .  A
O707        C710   1.290       .  A
O708        H718   0.990       .  S
O709        H722   0.990       .  S
C710       C1067   1.496       .  S
N733        C738   1.351       .  A
N733        C737   1.356       .  A
N733        H765   1.039       .  S
N734        C741   1.351       .  A
N734        C742   1.350       .  A
N735        C740   1.350       .  A
N735        C739   1.350       .  A
N735        H766   1.040       .  S
N736        C743   1.349       .  A
N736        C744   1.352       .  A
C737        C745   1.386       .  A
C737        C753   1.417       .  A
C738        C754   1.414       .  A
C738        C746   1.387       .  A
C739        C747   1.388       .  A
C739        C756   1.410       .  A
C740        C755   1.408       .  A
C740        C748   1.387       .  A
C741        C753   1.414       .  A
C741        C749   1.386       .  A
C742        C756   1.409       .  A
C742        C750   1.385       .  A
C743        C751   1.388       .  A
C743        C754   1.412       .  A
C744        C752   1.384       .  A
C744        C755   1.409       .  A
C745        C746   1.374       .  A
C745        H757   1.082       .  S
C746        H758   1.082       .  S
C747        C748   1.370       .  A
C747        H759   1.082       .  S
C748        H760   1.083       .  S
C749        C750   1.371       .  A
C749        H761   1.082       .  S
C750        H762   1.082       .  S
C751        C752   1.375       .  A
C751        H763   1.082       .  S
C752        H764   1.082       .  S
C753       C1053   1.495       .  S
C754       C1011   1.478       .  S
C755        C969   1.481       .  S
C756       C1137   1.476       .  S
N767        C772   1.355       .  A
N767        C771   1.354       .  A
N767        H799   1.035       .  S
N768        C775   1.349       .  A
N768        C776   1.350       .  A
N769        C774   1.351       .  A
N769        C773   1.355       .  A
N769        H800   1.028       .  S
N770        C777   1.352       .  A
N770        C778   1.351       .  A
C771        C779   1.386       .  A
C771        C787   1.416       .  A
C772        C788   1.419       .  A
C772        C780   1.387       .  A
C773        C781   1.385       .  A
C773        C790   1.419       .  A
C774        C789   1.422       .  A
C774        C782   1.390       .  A
C775        C787   1.411       .  A
C775        C783   1.386       .  A
C776        C790   1.417       .  A
C776        C784   1.388       .  A
C777        C785   1.385       .  A
C777        C788   1.415       .  A
C778        C786   1.388       .  A
C778        C789   1.418       .  A
C779        C780   1.370       .  A
C779        H791   1.081       .  S
C780        H792   1.082       .  S
C781        C782   1.375       .  A
C781        H793   1.082       .  S
C782        H794   1.082       .  S
C783        C784   1.369       .  A
C783        H795   1.082       .  S
C784        H796   1.082       .  S
C785        C786   1.372       .  A
C785        H797   1.082       .  S
C786        H798   1.082       .  S
C787       C1302   1.479       .  S
C788       C1512   1.492       .  S
C789       C1442   1.482       .  S
C790       C1372   1.487       .  S
N801        C806   1.359       .  A
N801        C805   1.358       .  A
N801        H833   1.038       .  S
N802        C809   1.352       .  A
N802        C810   1.353       .  A
N803        C808   1.354       .  A
N803        C807   1.355       .  A
N803        H834   1.039       .  S
N804        C811   1.354       .  A
N804        C812   1.352       .  A
C805        C813   1.386       .  A
C805        C821   1.423       .  A
C806        C822   1.426       .  A
C806        C814   1.387       .  A
C807        C815   1.387       .  A
C807        C824   1.416       .  A
C808        C823   1.416       .  A
C808        C816   1.388       .  A
C809        C821   1.417       .  A
C809        C817   1.388       .  A
C810        C824   1.413       .  A
C810        C818   1.385       .  A
C811        C819   1.387       .  A
C811        C822   1.417       .  A
C812        C820   1.386       .  A
C812        C823   1.414       .  A
C813        C814   1.377       .  A
C813        H825   1.082       .  S
C814        H826   1.082       .  S
C815        C816   1.373       .  A
C815        H827   1.082       .  S
C816        H828   1.082       .  S
C817        C818   1.372       .  A
C817        H829   1.082       .  S
C818        H830   1.082       .  S
C819        C820   1.370       .  A
C819        H831   1.082       .  S
C820        H832   1.082       .  S
C821        C983   1.495       .  S
C822        C955   1.500       .  S
C823       C1347   1.485       .  S
C824       C1428   1.488       .  S
N835        C840   1.352       .  A
N835        C839   1.354       .  A
N835        H867   1.038       .  S
N836        C843   1.351       .  A
N836        C844   1.350       .  A
N837        C842   1.353       .  A
N837        C841   1.351       .  A
N837        H868   1.038       .  S
N838        C845   1.352       .  A
N838        C846   1.353       .  A
C839        C847   1.385       .  A
C839        C855   1.414       .  A
C840        C856   1.415       .  A
C840        C848   1.387       .  A
C841        C849   1.387       .  A
C841        C858   1.412       .  A
C842        C857   1.413       .  A
C842        C850   1.386       .  A
C843        C855   1.413       .  A
C843        C851   1.387       .  A
C844        C858   1.411       .  A
C844        C852   1.387       .  A
C845        C853   1.386       .  A
C845        C856   1.414       .  A
C846        C854   1.386       .  A
C846        C857   1.414       .  A
C847        C848   1.377       .  A
C847        H859   1.082       .  S
C848        H860   1.082       .  S
C849        C850   1.377       .  A
C849        H861   1.082       .  S
C850        H862   1.082       .  S
C851        C852   1.372       .  A
C851        H863   1.082       .  S
C852        H864   1.082       .  S
C853        C854   1.375       .  A
C853        H865   1.082       .  S
C854        H866   1.082       .  S
C855        C941   1.490       .  S
C856       C1358   1.488       .  S
C857       C1277   1.487       .  S
C858       C1120   1.478       .  S
N869        C874   1.352       .  A
N869        C873   1.352       .  A
N869        H901   1.040       .  S
N870        C877   1.348       .  A
N870        C878   1.346       .  A
N871        C876   1.350       .  A
N871        C875   1.347       .  A
N871        H902   1.040       .  S
N872        C879   1.345       .  A
N872        C880   1.346       .  A
C873        C881   1.387       .  A
C873        C889   1.416       .  A
C874        C890   1.412       .  A
C874        C882   1.386       .  A
C875        C883   1.388       .  A
C875        C892   1.404       .  A
C876        C891   1.407       .  A
C876        C884   1.387       .  A
C877        C889   1.407       .  A
C877        C885   1.386       .  A
C878        C892   1.404       .  A
C878        C886   1.386       .  A
C879        C887   1.388       .  A
C879        C890   1.406       .  A
C880        C888   1.384       .  A
C880        C891   1.401       .  A
C881        C882   1.377       .  A
C881        H893   1.082       .  S
C882        H894   1.082       .  S
C883        C884   1.373       .  A
C883        H895   1.083       .  S
C884        H896   1.082       .  S
C885        C886   1.373       .  A
C885        H897   1.082       .  S
C886        H898   1.082       .  S
C887        C888   1.370       .  A
C887        H899   1.082       .  S
C888        H900   1.083       .  S
C889       C1039   1.484       .  S
C890       C1487   1.475       .  S
C891       C1291   1.471       .  S
C892       C1109   1.466       .  S
N903        C908   1.353       .  A
N903        C907   1.355       .  A
N903        H935   1.038       .  S
N904        C911   1.351       .  A
N904        C912   1.350       .  A
N905        C910   1.352       .  A
N905        C909   1.352       .  A
N905        H936   1.038       .  S
N906        C913   1.353       .  A
N906        C914   1.354       .  A
C907        C915   1.386       .  A
C907        C923   1.416       .  A
C908        C924   1.415       .  A
C908        C916   1.387       .  A
C909        C917   1.388       .  A
C909        C926   1.413       .  A
C910        C925   1.413       .  A
C910        C918   1.387       .  A
C911        C923   1.413       .  A
C911        C919   1.387       .  A
C912        C926   1.411       .  A
C912        C920   1.387       .  A
C913        C921   1.386       .  A
C913        C924   1.416       .  A
C914        C922   1.386       .  A
C914        C925   1.415       .  A
C915        C916   1.376       .  A
C915        H927   1.082       .  S
C916        H928   1.082       .  S
C917        C918   1.375       .  A
C917        H929   1.082       .  S
C918        H930   1.082       .  S
C919        C920   1.369       .  A
C919        H931   1.082       .  S
C920        H932   1.082       .  S
C921        C922   1.372       .  A
C921        H933   1.082       .  S
C922        H934   1.082       .  S
C923       C1025   1.489       .  S
C924        C997   1.489       .  S
C925       C1417   1.486       .  S
C926       C1501   1.479       .  S
C937        C938   1.405       .  A
C937        C942   1.399       .  A
C937        H944   1.084       .  S
C938        C939   1.416       .  A
C939        C940   1.402       .  A
C939        N946   1.428       .  S
C940        C941   1.402       .  A
C940        H945   1.084       .  S
C941        C942   1.409       .  A
C942        N943   1.428       .  S
N943        O947   1.262       .  A
N943        O948   1.262       .  A
N946        O950   1.262       .  A
N946        O949   1.262       .  A
C951        C952   1.405       .  A
C951        C956   1.408       .  A
C951        H958   1.084       .  S
C952        C953   1.421       .  A
C953        C954   1.400       .  A
C953        N960   1.429       .  S
C954        C955   1.398       .  A
C954        H959   1.084       .  S
C955        C956   1.414       .  A
C956        N957   1.427       .  S
N957        O961   1.262       .  A
N957        O962   1.262       .  A
N960        O964   1.262       .  A
N960        O963   1.262       .  A
C965        C966   1.417       .  A
C965        C970   1.401       .  A
C965        H972   1.083       .  S
C966        C967   1.417       .  A
C967        C968   1.400       .  A
C967        N974   1.426       .  S
C968        C969   1.397       .  A
C968        H973   1.084       .  S
C969        C970   1.403       .  A
C970        N971   1.431       .  S
N971        O975   1.262       .  A
N971        O976   1.262       .  A
N974        O978   1.262       .  A
N974        O977   1.262       .  A
C979        C980   1.408       .  A
C979        C984   1.400       .  A
C979        H986   1.084       .  S
C980        C981   1.420       .  A
C981        C982   1.405       .  A
C981        N988   1.428       .  S
C982        C983   1.401       .  A
C982        H987   1.084       .  S
C983        C984   1.409       .  A
C984        N985   1.428       .  S
N985        O989   1.262       .  A
N985        O990   1.262       .  A
N988        O992   1.262       .  A
N988        O991   1.262       .  A
C993        C994   1.416       .  A
C993        C998   1.407       .  A
C993       H1000   1.083       .  S
C994        C995   1.425       .  A
C995        C996   1.404       .  A
C995       N1002   1.427       .  S
C996        C997   1.395       .  A
C996       H1001   1.084       .  S
C997        C998   1.403       .  A
C998        N999   1.431       .  S
N999       O1003   1.262       .  A
N999       O1004   1.262       .  A
N1002      O1006   1.262       .  A
N1002      O1005   1.262       .  A
C1007      C1008   1.414       .  A
C1007      C1012   1.401       .  A
C1007      H1014   1.083       .  S
C1008      C1009   1.420       .  A
C1009      C1010   1.400       .  A
C1009      N1016   1.427       .  S
C1010      C1011   1.394       .  A
C1010      H1015   1.084       .  S
C1011      C1012   1.403       .  A
C1012      N1013   1.431       .  S
N1013      O1017   1.262       .  A
N1013      O1018   1.262       .  A
N1016      O1020   1.262       .  A
N1016      O1019   1.262       .  A
C1021      C1022   1.403       .  A
C1021      C1026   1.401       .  A
C1021      H1028   1.084       .  S
C1022      C1023   1.412       .  A
C1023      C1024   1.399       .  A
C1023      N1030   1.428       .  S
C1024      C1025   1.401       .  A
C1024      H1029   1.084       .  S
C1025      C1026   1.410       .  A
C1026      N1027   1.428       .  S
N1027      O1031   1.262       .  A
N1027      O1032   1.262       .  A
N1030      O1034   1.262       .  A
N1030      O1033   1.262       .  A
C1035      C1036   1.403       .  A
C1035      C1040   1.400       .  A
C1035      H1042   1.084       .  S
C1036      C1037   1.414       .  A
C1037      C1038   1.392       .  A
C1037      N1044   1.428       .  S
C1038      C1039   1.397       .  A
C1038      H1043   1.084       .  S
C1039      C1040   1.414       .  A
C1040      N1041   1.429       .  S
N1041      O1045   1.262       .  A
N1041      O1046   1.262       .  A
N1044      O1048   1.262       .  A
N1044      O1047   1.262       .  A
C1049      C1050   1.405       .  A
C1049      C1054   1.406       .  A
C1049      H1056   1.084       .  S
C1050      C1051   1.412       .  A
C1051      C1052   1.397       .  A
C1051      N1058   1.428       .  S
C1052      C1053   1.402       .  A
C1052      H1057   1.084       .  S
C1053      C1054   1.413       .  A
C1054      N1055   1.429       .  S
N1055      O1059   1.261       .  A
N1055      O1060   1.262       .  A
N1058      O1062   1.262       .  A
N1058      O1061   1.262       .  A
C1063      C1064   1.394       .  A
C1063      C1068   1.401       .  A
C1063      H1070   1.084       .  S
C1064      C1065   1.405       .  A
C1065      C1066   1.402       .  A
C1065      N1072   1.431       .  S
C1066      C1067   1.413       .  A
C1066      H1071   1.084       .  S
C1067      C1068   1.419       .  A
C1068      N1069   1.426       .  S
N1069      O1073   1.262       .  A
N1069      O1074   1.262       .  A
N1072      O1076   1.262       .  A
N1072      O1075   1.262       .  A
C1077      C1078   1.399       .  A
C1077      C1082   1.403       .  A
C1077      H1084   1.084       .  S
C1078      C1079   1.409       .  A
C1079      C1080   1.398       .  A
C1079      N1086   1.428       .  S
C1080      C1081   1.408       .  A
C1080      H1085   1.083       .  S
C1081      C1082   1.422       .  A
C1082      N1083   1.428       .  S
N1083      O1087   1.262       .  A
N1083      O1088   1.262       .  A
N1086      O1090   1.262       .  A
N1086      O1089   1.262       .  A
C1091      C1092   1.400       .  A
C1091      C1096   1.398       .  A
C1091      H1098   1.084       .  S
C1092      C1093   1.408       .  A
C1093      C1094   1.401       .  A
C1093      N1100   1.427       .  S
C1094      C1095   1.405       .  A
C1094      H1099   1.084       .  S
C1095      C1096   1.412       .  A
C1096      N1097   1.427       .  S
N1097      O1101   1.261       .  A
N1097      O1102   1.262       .  A
N1100      O1104   1.262       .  A
N1100      O1103   1.262       .  A
C1105      C1106   1.411       .  A
C1105      C1110   1.393       .  A
C1105      H1112   1.084       .  S
C1106      C1107   1.418       .  A
C1107      C1108   1.395       .  A
C1107      N1114   1.427       .  S
C1108      C1109   1.393       .  A
C1108      H1113   1.084       .  S
C1109      C1110   1.401       .  A
C1110      N1111   1.431       .  S
N1111      O1115   1.262       .  A
N1111      O1116   1.262       .  A
N1114      O1118   1.262       .  A
N1114      O1117   1.262       .  A
C1119      C1120   1.391       .  A
C1119      C1124   1.397       .  A
C1119      H1126   1.084       .  S
C1120      C1121   1.403       .  A
C1121      C1122   1.403       .  A
C1121      N1128   1.429       .  S
C1122      C1123   1.412       .  A
C1122      H1127   1.083       .  S
C1123      C1124   1.420       .  A
C1124      N1125   1.423       .  S
N1125      O1129   1.262       .  A
N1125      O1130   1.261       .  A
N1128      O1132   1.262       .  A
N1128      O1131   1.262       .  A
C1133      C1134   1.417       .  A
C1133      C1138   1.407       .  A
C1133      H1140   1.083       .  S
C1134      C1135   1.423       .  A
C1135      C1136   1.391       .  A
C1135      N1142   1.425       .  S
C1136      C1137   1.389       .  A
C1136      H1141   1.085       .  S
C1137      C1138   1.401       .  A
C1138      N1139   1.429       .  S
N1139      O1143   1.262       .  A
N1139      O1144   1.262       .  A
N1142      O1146   1.261       .  A
N1142      O1145   1.260       .  A
C1147      C1148   1.411       .  A
C1147      C1152   1.398       .  A
C1147      H1154   1.083       .  S
C1148      C1149   1.420       .  A
C1149      C1150   1.397       .  A
C1149      N1156   1.426       .  S
C1150      C1151   1.397       .  A
C1150      H1155   1.085       .  S
C1151      C1152   1.404       .  A
C1152      N1153   1.426       .  S
N1153      O1157   1.262       .  A
N1153      O1158   1.262       .  A
N1156      O1160   1.259       .  A
N1156      O1159   1.262       .  A
C1161      C1162   1.396       .  A
C1161      C1166   1.398       .  A
C1161      H1168   1.084       .  S
C1162      C1163   1.408       .  A
C1163      C1164   1.398       .  A
C1163      N1170   1.428       .  S
C1164      C1165   1.407       .  A
C1164      H1169   1.084       .  S
C1165      C1166   1.416       .  A
C1166      N1167   1.423       .  S
N1167      O1171   1.261       .  A
N1167      O1172   1.261       .  A
N1170      O1174   1.262       .  A
N1170      O1173   1.262       .  A
C1175      C1176   1.407       .  A
C1175      C1180   1.395       .  A
C1175      H1182   1.084       .  S
C1176      C1177   1.418       .  A
C1177      C1178   1.405       .  A
C1177      N1184   1.428       .  S
C1178      C1179   1.402       .  A
C1178      H1183   1.084       .  S
C1179      C1180   1.406       .  A
C1180      N1181   1.428       .  S
N1181      O1185   1.262       .  A
N1181      O1186   1.262       .  A
N1184      O1188   1.262       .  A
N1184      O1187   1.262       .  A
C1189      C1190   1.413       .  A
C1189      C1194   1.404       .  A
C1189      H1196   1.084       .  S
C1190      C1191   1.418       .  A
C1191      C1192   1.402       .  A
C1191      N1198   1.427       .  S
C1192      C1193   1.397       .  A
C1192      H1197   1.084       .  S
C1193      C1194   1.405       .  A
C1194      N1195   1.430       .  S
N1195      O1199   1.262       .  A
N1195      O1200   1.262       .  A
N1198      O1202   1.262       .  A
N1198      O1201   1.262       .  A
C1203      C1204   1.414       .  A
C1203      C1208   1.413       .  A
C1203      H1210   1.083       .  S
C1204      C1205   1.417       .  A
C1205      C1206   1.398       .  A
C1205      N1212   1.420       .  S
C1206      C1207   1.392       .  A
C1206      H1211   1.084       .  S
C1207      C1208   1.405       .  A
C1208      N1209   1.428       .  S
N1209      O1213   1.262       .  A
N1209      O1214   1.262       .  A
N1212      O1216   1.260       .  A
N1212      O1215   1.263       .  A
C1217      C1218   1.394       .  A
C1217      C1222   1.405       .  A
C1217      H1224   1.084       .  S
C1218      C1219   1.403       .  A
C1219      C1220   1.408       .  A
C1219      N1226   1.429       .  S
C1220      C1221   1.418       .  A
C1220      H1225   1.083       .  S
C1221      C1222   1.423       .  A
C1222      N1223   1.423       .  S
N1223      O1227   1.262       .  A
N1223      O1228   1.259       .  A
N1226      O1230   1.262       .  A
N1226      O1229   1.262       .  A
C1231      C1232   1.398       .  A
C1231      C1236   1.403       .  A
C1231      H1238   1.084       .  S
C1232      C1233   1.404       .  A
C1233      C1234   1.402       .  A
C1233      N1240   1.430       .  S
C1234      C1235   1.411       .  A
C1234      H1239   1.084       .  S
C1235      C1236   1.416       .  A
C1236      N1237   1.426       .  S
N1237      O1241   1.262       .  A
N1237      O1242   1.262       .  A
N1240      O1244   1.262       .  A
N1240      O1243   1.262       .  A
C1245      C1246   1.398       .  A
C1245      C1250   1.400       .  A
C1245      H1252   1.084       .  S
C1246      C1247   1.404       .  A
C1247      C1248   1.392       .  A
C1247      N1254   1.428       .  S
C1248      C1249   1.408       .  A
C1248      H1253   1.083       .  S
C1249      C1250   1.420       .  A
C1250      N1251   1.428       .  S
N1251      O1255   1.261       .  A
N1251      O1256   1.262       .  A
N1254      O1258   1.262       .  A
N1254      O1257   1.262       .  A
C1259      C1260   1.397       .  A
C1259      C1264   1.396       .  A
C1259      H1266   1.084       .  S
C1260      C1261   1.409       .  A
C1261      C1262   1.397       .  A
C1261      N1268   1.429       .  S
C1262      C1263   1.403       .  A
C1262      H1267   1.084       .  S
C1263      C1264   1.410       .  A
C1264      N1265   1.426       .  S
N1265      O1269   1.262       .  A
N1265      O1270   1.262       .  A
N1268      O1272   1.260       .  A
N1268      O1271   1.263       .  A
C1273      C1274   1.408       .  A
C1273      C1278   1.400       .  A
C1273      H1280   1.082       .  S
C1274      C1275   1.420       .  A
C1275      C1276   1.401       .  A
C1275      N1282   1.429       .  S
C1276      C1277   1.398       .  A
C1276      H1281   1.084       .  S
C1277      C1278   1.407       .  A
C1278      N1279   1.427       .  S
N1279      O1283   1.262       .  A
N1279      O1284   1.262       .  A
N1282      O1286   1.262       .  A
N1282      O1285   1.262       .  A
C1287      C1288   1.406       .  A
C1287      C1292   1.386       .  A
C1287      H1294   1.083       .  S
C1288      C1289   1.420       .  A
C1289      C1290   1.398       .  A
C1289      N1296   1.428       .  S
C1290      C1291   1.397       .  A
C1290      H1295   1.084       .  S
C1291      C1292   1.404       .  A
C1292      N1293   1.429       .  S
N1293      O1297   1.262       .  A
N1293      O1298   1.262       .  A
N1296      O1300   1.262       .  A
N1296      O1299   1.262       .  A
C1301      C1302   1.398       .  A
C1301      C1306   1.394       .  A
C1301      H1308   1.084       .  S
C1302      C1303   1.409       .  A
C1303      C1304   1.398       .  A
C1303      N1310   1.429       .  S
C1304      C1305   1.404       .  A
C1304      H1309   1.084       .  S
C1305      C1306   1.411       .  A
C1306      N1307   1.428       .  S
N1307      O1311   1.262       .  A
N1307      O1312   1.262       .  A
N1310      O1314   1.261       .  A
N1310      O1313   1.262       .  A
C1315      C1316   1.398       .  A
C1315      C1320   1.398       .  A
C1315      H1322   1.084       .  S
C1316      C1317   1.405       .  A
C1317      C1318   1.386       .  A
C1317      N1324   1.429       .  S
C1318      C1319   1.402       .  A
C1318      H1323   1.084       .  S
C1319      C1320   1.415       .  A
C1320      N1321   1.428       .  S
N1321      O1325   1.262       .  A
N1321      O1326   1.262       .  A
N1324      O1328   1.262       .  A
N1324      O1327   1.262       .  A
C1329      C1330   1.409       .  A
C1329      C1334   1.397       .  A
C1329      H1336   1.083       .  S
C1330      C1331   1.422       .  A
C1331      C1332   1.403       .  A
C1331      N1338   1.428       .  S
C1332      C1333   1.398       .  A
C1332      H1337   1.084       .  S
C1333      C1334   1.405       .  A
C1334      N1335   1.428       .  S
N1335      O1339   1.262   1_554  A
N1335      O1340   1.262       .  A
N1338      O1342   1.262       .  A
N1338      O1341   1.262       .  A
C1343      C1344   1.412       .  A
C1343      C1348   1.411       .  A
C1343      H1350   1.083       .  S
C1344      C1345   1.417       .  A
C1345      C1346   1.395       .  A
C1345      N1352   1.426       .  S
C1346      C1347   1.393       .  A
C1346      H1351   1.084       .  S
C1347      C1348   1.405       .  A
C1348      N1349   1.429       .  S
N1349      O1353   1.262       .  A
N1349      O1354   1.262       .  A
N1352      O1356   1.262       .  A
N1352      O1355   1.261       .  A
C1357      C1358   1.402       .  A
C1357      C1362   1.406       .  A
C1357      H1364   1.084       .  S
C1358      C1359   1.405       .  A
C1359      C1360   1.401       .  A
C1359      N1366   1.431       .  S
C1360      C1361   1.412       .  A
C1360      H1365   1.083       .  S
C1361      C1362   1.416       .  A
C1362      N1363   1.428       .  S
N1363      O1367   1.261       .  A
N1363      O1368   1.262       .  A
N1366      O1370   1.262       .  A
N1366      O1369   1.262       .  A
C1371      C1372   1.400       .  A
C1371      C1376   1.404       .  A
C1371      H1378   1.084       .  S
C1372      C1373   1.405       .  A
C1373      C1374   1.395       .  A
C1373      N1380   1.429       .  S
C1374      C1375   1.410       .  A
C1374      H1379   1.083       .  S
C1375      C1376   1.418       .  A
C1376      N1377   1.427       .  S
N1377      O1381   1.262       .  A
N1377      O1382   1.262       .  A
N1380      O1384   1.262       .  A
N1380      O1383   1.262       .  A
C1385      C1386   1.396       .  A
C1385      C1390   1.397       .  A
C1385      H1392   1.084       .  S
C1386      C1387   1.407       .  A
C1387      C1388   1.402       .  A
C1387      N1394   1.427       .  S
C1388      C1389   1.408       .  A
C1388      H1393   1.083       .  S
C1389      C1390   1.422       .  A
C1390      N1391   1.428       .  S
N1391      O1395   1.262       .  A
N1391      O1396   1.262       .  A
N1394      O1398   1.262       .  A
N1394      O1397   1.262       .  A
C1399      C1400   1.403       .  A
C1399      C1404   1.407       .  A
C1399      H1406   1.084       .  S
C1400      C1401   1.417       .  A
C1401      C1402   1.399       .  A
C1401      N1408   1.429       .  S
C1402      C1403   1.399       .  A
C1402      H1407   1.084       .  S
C1403      C1404   1.413       .  A
C1404      N1405   1.427       .  S
N1405      O1409   1.262       .  A
N1405      O1410   1.262       .  A
N1408      O1412   1.262       .  A
N1408      O1411   1.262       .  A
C1413      C1414   1.410       .  A
C1413      C1418   1.398       .  A
C1413      H1420   1.083       .  S
C1414      C1415   1.420       .  A
C1415      C1416   1.401       .  A
C1415      N1422   1.423       .  S
C1416      C1417   1.395       .  A
C1416      H1421   1.084       .  S
C1417      C1418   1.405       .  A
C1418      N1419   1.427       .  S
N1419      O1423   1.262       .  A
N1419      O1424   1.262       .  A
N1422      O1426   1.258       .  A
N1422      O1425   1.259       .  A
C1427      C1428   1.395       .  A
C1427      C1432   1.396       .  A
C1427      H1434   1.085       .  S
C1428      C1429   1.408       .  A
C1429      C1430   1.404       .  A
C1429      N1436   1.426       .  S
C1430      C1431   1.408       .  A
C1430      H1435   1.084       .  S
C1431      C1432   1.414       .  A
C1432      N1433   1.421       .  S
N1433      O1437   1.261       .  A
N1433      O1438   1.262       .  A
N1436      O1440   1.261       .  A
N1436      O1439   1.262       .  A
C1441      C1442   1.392       .  A
C1441      C1446   1.395       .  A
C1441      H1448   1.085       .  S
C1442      C1443   1.403       .  A
C1443      C1444   1.408       .  A
C1443      N1450   1.429       .  S
C1444      C1445   1.415       .  A
C1444      H1449   1.083       .  S
C1445      C1446   1.418       .  A
C1446      N1447   1.423       .  S
N1447      O1451   1.262       .  A
N1447      O1452   1.262       .  A
N1450      O1454   1.262       .  A
N1450      O1453   1.262       .  A
C1455      C1456   1.409       .  A
C1455      C1460   1.409       .  A
C1455      H1462   1.083       .  S
C1456      C1457   1.414       .  A
C1457      C1458   1.396       .  A
C1457      N1464   1.428       .  S
C1458      C1459   1.397       .  A
C1458      H1463   1.084       .  S
C1459      C1460   1.410       .  A
C1460      N1461   1.430       .  S
N1461      O1465   1.262       .  A
N1461      O1466   1.262       .  A
N1464      O1468   1.261       .  A
N1464      O1467   1.262   1_554  A
C1469      C1470   1.402       .  A
C1469      C1474   1.407       .  A
C1469      H1476   1.084       .  S
C1470      C1471   1.409       .  A
C1471      C1472   1.401       .  A
C1471      N1478   1.428       .  S
C1472      C1473   1.407       .  A
C1472      H1477   1.084       .  S
C1473      C1474   1.420       .  A
C1474      N1475   1.428       .  S
N1475      O1479   1.262       .  A
N1475      O1480   1.262       .  A
N1478      O1482   1.262       .  A
N1478      O1481   1.262       .  A
C1483      C1484   1.406       .  A
C1483      C1488   1.395       .  A
C1483      H1490   1.084       .  S
C1484      C1485   1.415       .  A
C1485      C1486   1.396       .  A
C1485      N1492   1.425       .  S
C1486      C1487   1.397       .  A
C1486      H1491   1.085       .  S
C1487      C1488   1.402       .  A
C1488      N1489   1.427       .  S
N1489      O1493   1.262       .  A
N1489      O1494   1.261       .  A
N1492      O1496   1.262       .  A
N1492      O1495   1.262       .  A
C1497      C1498   1.411       .  A
C1497      C1502   1.406       .  A
C1497      H1504   1.084       .  S
C1498      C1499   1.419       .  A
C1499      C1500   1.394       .  A
C1499      N1506   1.428       .  S
C1500      C1501   1.392       .  A
C1500      H1505   1.084       .  S
C1501      C1502   1.404       .  A
C1502      N1503   1.429       .  S
N1503      O1507   1.262       .  A
N1503      O1508   1.262       .  A
N1506      O1510   1.261       .  A
N1506      O1509   1.262       .  A
C1511      C1512   1.400       .  A
C1511      C1516   1.395       .  A
C1511      H1518   1.084       .  S
C1512      C1513   1.412       .  A
C1513      C1514   1.402       .  A
C1513      N1520   1.428       .  S
C1514      C1515   1.403       .  A
C1514      H1519   1.084       .  S
C1515      C1516   1.412       .  A
C1516      N1517   1.425       .  S
N1517      O1521   1.260       .  A
N1517      O1522   1.262       .  A
N1520      O1524   1.261       .  A
N1520      O1523   1.262       .  A
C1525      C1526   1.400       .  A
C1525      C1530   1.403       .  A
C1525      H1532   1.084       .  S
C1526      C1527   1.411       .  A
C1527      C1528   1.404       .  A
C1527      N1534   1.427       .  S
C1528      C1529   1.405       .  A
C1528      H1533   1.084       .  S
C1529      C1530   1.417       .  A
C1530      N1531   1.428       .  S
N1531      O1535   1.261       .  A
N1531      O1536   1.262       .  A
N1534      O1538   1.262       .  A
N1534      O1537   1.262       .  A
C1539      C1540   1.416       .  A
C1539      C1544   1.405       .  A
C1539      H1546   1.083       .  S
C1540      C1541   1.420       .  A
C1541      C1542   1.397       .  A
C1541      N1548   1.426       .  S
C1542      C1543   1.394       .  A
C1542      H1547   1.084       .  S
C1543      C1544   1.401       .  A
C1544      N1545   1.430       .  S
N1545      O1549   1.262   1_554  A
N1545      O1550   1.262       .  A
N1548      O1552   1.262       .  A
N1548      O1551   1.261       .  A
C1553      C1554   1.396       .  A
C1553      C1558   1.398       .  A
C1553      H1560   1.084       .  S
C1554      C1555   1.405       .  A
C1555      C1556   1.389       .  A
C1555      N1562   1.427       .  S
C1556      C1557   1.404       .  A
C1556      H1561   1.084       .  S
C1557      C1558   1.419       .  A
C1558      N1559   1.427       .  S
N1559      O1563   1.262       .  A
N1559      O1564   1.262       .  A
N1562      O1566   1.262       .  A
N1562      O1565   1.261       .  A
C1567      C1568   1.415       .  A
C1567      C1572   1.401       .  A
C1567      H1574   1.083       .  S
C1568      C1569   1.420       .  A
C1569      C1570   1.398       .  A
C1569      N1576   1.426       .  S
C1570      C1571   1.394       .  A
C1570      H1575   1.084       .  S
C1571      C1572   1.402       .  A
C1572      N1573   1.432       .  S
N1573      O1577   1.262       .  A
N1573      O1578   1.262       .  A
N1576      O1580   1.262       .  A
N1576      O1579   1.262       .  A
C1581      C1582   1.414       .  A
C1581      C1586   1.401       .  A
C1581      H1588   1.083       .  S
C1582      C1583   1.422       .  A
C1583      C1584   1.401       .  A
C1583      N1590   1.427       .  S
C1584      C1585   1.394       .  A
C1584      H1589   1.084       .  S
C1585      C1586   1.403       .  A
C1586      N1587   1.430       .  S
N1587      O1591   1.262       .  A
N1587      O1592   1.262       .  A
N1590      O1594   1.262       .  A
N1590      O1593   1.262       .  A
C1595      C1596   1.392       .  A
C1595      C1600   1.396       .  A
C1595      H1602   1.084       .  S
C1596      C1597   1.403       .  A
C1597      C1598   1.395       .  A
C1597      N1604   1.429       .  S
C1598      C1599   1.407       .  A
C1598      H1603   1.084       .  S
C1599      C1600   1.419       .  A
C1600      N1601   1.427       .  S
N1601      O1605   1.262       .  A
N1601      O1606   1.262       .  A
N1604      O1608   1.261       .  A
N1604      O1607   1.262       .  A
