geometry optimzed in LAMMPS
_audit_creation_date              2020-12-01 
_audit_creation_method            'lammps2cif' 
_symmetry_space_group_name_H-M    'P1' 
_symmetry_Int_Tables_number       1 
_symmetry_cell_setting            triclinic 
loop_ 
_symmetry_equiv_pos_as_xyz 
  x,y,z 
_cell_length_a                    58.1696806 
_cell_length_b                    58.747132965353146 
_cell_length_c                    58.325473311746954 
_cell_angle_alpha                 89.27166563751584 
_cell_angle_beta                  90.0288471630912 
_cell_angle_gamma                 90.27352217340842 
loop_ 
_atom_site_label 
_atom_site_type_symbol 
_atom_site_fract_x 
_atom_site_fract_y 
_atom_site_fract_z 
_atom_site_charge 
O1          O  0.72826989  0.68162012  0.74179679    -0.78600
C2          C  0.75631986  0.70380686  0.67440069     0.82400
O3          O  0.78887509  0.73517976  0.75899991    -0.79800
O4          O  0.76153425  0.77557180  0.69226582    -0.81200
O5          O  0.68595314  0.75144405  0.71937587    -0.81000
O6          O  0.69740310  0.70231259  0.74946029    -0.79700
Zn7        Zn  0.75134338  0.70363182  0.72683538     1.55700
O8          O  0.70654895  0.76020095  0.68825725    -0.81100
Cd9        Cd  0.70893858  0.73493297  0.74103925     1.59700
Cd10       Cd  0.76160032  0.75487768  0.74678404     1.59600
O11         O  0.70918111  0.75194709  0.77165677    -0.81100
O12         O  0.74060941  0.73506142  0.72775633    -1.91600
Cd13       Cd  0.73916684  0.74816352  0.69598251     1.59900
O14         O  0.74401403  0.76754818  0.77535615    -0.81000
O15         O  0.74869980  0.72405495  0.67232707    -0.79700
C16         C  0.79365919  0.71414119  0.75658680     0.82900
C17         C  0.70792252  0.68331298  0.74982340     0.82500
O18         O  0.75810444  0.69404314  0.69401061    -0.78600
C19         C  0.68771838  0.76051925  0.69944700     0.83300
O20         O  0.78084063  0.70100953  0.74484423    -0.78700
C21         C  0.72363261  0.76386298  0.78278174     0.83500
C22         C  0.77411324  0.78706319  0.70586037     0.83800
O23         O  0.77556971  0.78184852  0.72717065    -0.81100
C24         C  0.86467698  0.34910429  0.53655788     0.86300
C25         C  0.89078478  0.34580299  0.53354366    -0.53900
C26         C  0.89973858  0.35606928  0.51426947     0.09300
C27         C  0.88144561  0.36846692  0.49956602     0.20200
C28         C  0.86167684  0.37511078  0.53560455    -0.54600
C29         C  0.87034210  0.38530793  0.51623559     0.09400
C30         C  0.85406978  0.34054883  0.51420670    -0.54200
C31         C  0.86248431  0.35072848  0.49480441     0.09900
H32         H  0.90171415  0.33778531  0.54623655     0.14400
H33         H  0.88836863  0.37662226  0.48376853     0.00200
H34         H  0.85312665  0.38453308  0.54901154     0.14800
H35         H  0.84064689  0.32763579  0.51389247     0.14500
C36         C  0.14780656  0.36396571  0.46799106     0.86300
C37         C  0.12247674  0.35636978  0.47045307    -0.53900
C38         C  0.11205694  0.36377085  0.49006158     0.09300
C39         C  0.12806226  0.37792775  0.50551785     0.20200
C40         C  0.14707675  0.38987901  0.47022133    -0.54600
C41         C  0.13675417  0.39733090  0.48971017     0.09400
C42         C  0.15922915  0.35536062  0.49009302    -0.54200
C43         C  0.14922304  0.36271917  0.50980587     0.09900
H44         H  0.11311638  0.34670758  0.45781529     0.14400
H45         H  0.11979173  0.38392924  0.52145774     0.00200
H46         H  0.15445289  0.40136016  0.45743278     0.14800
H47         H  0.17404111  0.34417455  0.49000633     0.14500
C48         C  0.86168570  0.62909924  0.46421997     0.86300
C49         C  0.88744637  0.63453460  0.46620612    -0.53900
C50         C  0.89744341  0.62711849  0.48613699     0.09300
C51         C  0.88044789  0.61470227  0.50244922     0.20200
C52         C  0.86043268  0.60309616  0.46776531    -0.54600
C53         C  0.87029711  0.59541709  0.48772105     0.09400
C54         C  0.85084397  0.63886402  0.48582200    -0.54200
C55         C  0.86036022  0.63150902  0.50603793     0.09900
H56         H  0.89694033  0.64351788  0.45284347     0.14400
H57         H  0.88872552  0.60855643  0.51844775     0.00200
H58         H  0.85294379  0.59154876  0.45550557     0.14800
H59         H  0.83605883  0.65002424  0.48486708     0.14500
C60         C  0.14535152  0.64043959  0.53281158     0.86300
C61         C  0.12012727  0.64699065  0.52895994    -0.53900
C62         C  0.11078455  0.63923199  0.50896326     0.09300
C63         C  0.12815327  0.62607526  0.49413610     0.20200
C64         C  0.14553570  0.61433546  0.53034236    -0.54600
C65         C  0.13661318  0.60675211  0.51009692     0.09400
C66         C  0.15806754  0.64924040  0.51150388    -0.54200
C67         C  0.14929202  0.64183026  0.49123069     0.09900
H68         H  0.11038307  0.65642869  0.54151282     0.14400
H69         H  0.12119707  0.61994438  0.47762835     0.00200
H70         H  0.15155124  0.60254846  0.54333337     0.14800
H71         H  0.17293440  0.66045054  0.51247205     0.14500
C72         C  0.36150500  0.48018076  0.87832804     0.86300
C73         C  0.38674906  0.48268587  0.87127098    -0.53900
C74         C  0.39757320  0.50157975  0.87950781     0.09300
C75         C  0.38185829  0.51655507  0.89433825     0.20200
C76         C  0.36185969  0.48133641  0.90474565    -0.54600
C77         C  0.37244258  0.50033085  0.91322255     0.09400
C78         C  0.35025614  0.50267562  0.87084651    -0.54200
C79         C  0.36088458  0.52178350  0.87890489     0.09900
H80         H  0.39541406  0.47019392  0.86080893     0.14400
H81         H  0.39052244  0.53197138  0.90105235     0.00200
H82         H  0.35364166  0.46903458  0.91604679     0.14800
H83         H  0.33552652  0.50337935  0.85941429     0.14500
C84         C  0.37358449  0.54159472  0.16165824     0.86300
C85         C  0.39963948  0.53820616  0.16420313    -0.53900
C86         C  0.40765154  0.51846727  0.15505083     0.09300
C87         C  0.38869694  0.50377182  0.14407610     0.20200
C88         C  0.36938796  0.53955750  0.13555202    -0.54600
C89         C  0.37741974  0.51983480  0.12622845     0.09400
C90         C  0.36277085  0.51996289  0.17205781    -0.54200
C91         C  0.37038596  0.50000962  0.16296505     0.09900
H92         H  0.41079980  0.55052819  0.17242853     0.14400
H93         H  0.39510750  0.48780707  0.13656747     0.00200
H94         H  0.36219953  0.55287899  0.12485273     0.14800
H95         H  0.35037874  0.52065837  0.18592544     0.14500
C96         C  0.64096289  0.46581449  0.85069624     0.86300
C97         C  0.64636132  0.46569769  0.87649277    -0.53900
C98         C  0.63953492  0.48473711  0.88781269     0.09300
C99         C  0.62870954  0.50291196  0.87190245     0.20200
C100        C  0.61510366  0.47100065  0.84929016    -0.54600
C101        C  0.60849662  0.49026536  0.86048449     0.09400
C102        C  0.65273948  0.48762272  0.84153278    -0.54200
C103        C  0.64634291  0.50708592  0.85245855     0.09900
H104        H  0.65368547  0.45105902  0.88535776     0.14400
H105        H  0.62369875  0.51866541  0.88088437     0.00200
H106        H  0.60296988  0.45957492  0.84112867     0.14800
H107        H  0.66477976  0.48814889  0.82741218     0.14500
C108        C  0.65070888  0.46029094  0.13776668     0.86300
C109        C  0.62499839  0.46409994  0.14226882    -0.53900
C110        C  0.61635294  0.48349906  0.13247257     0.09300
C111        C  0.63435793  0.49744532  0.11887504     0.20200
C112        C  0.65273953  0.46112579  0.11133712    -0.54600
C113        C  0.64413286  0.48057430  0.10137652     0.09400
C114        C  0.66256346  0.48219590  0.14563817    -0.54200
C115        C  0.65406145  0.50166972  0.13597693     0.09900
H116        H  0.61449007  0.45214762  0.15206925     0.14400
H117        H  0.62743185  0.51330606  0.11107767     0.00200
H118        H  0.66014327  0.44780813  0.10111611     0.14800
H119        H  0.67614559  0.48226089  0.15843137     0.14500
C120        C  0.52620909  0.86048775  0.36304191     0.86300
C121        C  0.52837736  0.88663976  0.36107231    -0.53900
C122        C  0.51110439  0.89830264  0.37156058     0.09300
C123        C  0.49285976  0.88270420  0.38280551     0.20200
C124        C  0.52401933  0.85574576  0.38896658    -0.54600
C125        C  0.50680530  0.86755686  0.39951963     0.09400
C126        C  0.50227266  0.85544071  0.35320573    -0.54200
C127        C  0.48484675  0.86670785  0.36365843     0.09900
H128        H  0.54203535  0.89561004  0.35215055     0.14400
H129        H  0.47847966  0.89197912  0.39089886     0.00200
H130        H  0.53601551  0.84493077  0.39824037     0.14800
H131        H  0.49924115  0.84352319  0.33942323     0.14500
C132        C  0.54579296  0.14410950  0.36428800     0.86300
C133        C  0.54477791  0.14533262  0.39055420    -0.53900
C134        C  0.52506297  0.13667113  0.40006037     0.09300
C135        C  0.50798983  0.12735603  0.38216082     0.20200
C136        C  0.54174373  0.11869600  0.35923524    -0.54600
C137        C  0.52213395  0.10967060  0.36882184     0.09400
C138        C  0.52392646  0.15583680  0.35591449    -0.54200
C139        C  0.50406113  0.14745824  0.36521874     0.09900
H140        H  0.55882802  0.15207274  0.40072576     0.14400
H141        H  0.49191884  0.12060878  0.38992033     0.00200
H142        H  0.55340704  0.10837652  0.34946710     0.14800
H143        H  0.52429027  0.16970994  0.34342960     0.14500
C144        C  0.47033379  0.86555998  0.64842639     0.86300
C145        C  0.47162571  0.89176091  0.64897222    -0.53900
C146        C  0.49065235  0.90094738  0.63840465     0.09300
C147        C  0.50671304  0.88280728  0.62819573     0.20200
C148        C  0.47209742  0.86010484  0.62274803    -0.54600
C149        C  0.49115337  0.86892131  0.61215332     0.09400
C150        C  0.49308717  0.85756477  0.65875885    -0.54200
C151        C  0.51216855  0.86636847  0.64826683     0.09900
H152        H  0.45853856  0.90223171  0.65669433     0.14400
H153        H  0.52223264  0.88984674  0.61956247     0.00200
H154        H  0.45915108  0.85043708  0.61358062     0.14800
H155        H  0.49396671  0.84518382  0.67272821     0.14500
C156        C  0.46592452  0.14708291  0.64308987     0.86300
C157        C  0.47127220  0.15270526  0.61787641    -0.53900
C158        C  0.49114260  0.14334346  0.60987032     0.09300
C159        C  0.50414994  0.12922767  0.62811390     0.20200
C160        C  0.46664375  0.12087615  0.64459402    -0.54600
C161        C  0.48635157  0.11142039  0.63630512     0.09400
C162        C  0.48740505  0.15463693  0.65623677    -0.54200
C163        C  0.50757594  0.14554313  0.64851786     0.09900
H164        H  0.45969012  0.16255274  0.60707554     0.14400
H165        H  0.52026470  0.12161277  0.62168962     0.00200
H166        H  0.45297933  0.11027240  0.65139922     0.14800
H167        H  0.48661251  0.16692439  0.66994497     0.14500
O168        O  0.23049550  0.27310955  0.69747794    -0.78600
C169        C  0.29779192  0.24840671  0.72301461     0.82400
O170        O  0.21087179  0.21559756  0.75293141    -0.79800
O171        O  0.27611117  0.24721551  0.79422038    -0.81200
O172        O  0.25152668  0.32065225  0.76245458    -0.81000
O173        O  0.21926009  0.30345288  0.71691191    -0.79700
Zn174      Zn  0.24525608  0.25207213  0.72112402     1.55700
O175        O  0.28112609  0.30045044  0.77542972    -0.81100
Cd176      Cd  0.22956630  0.29560298  0.74992942     1.59700
Cd177      Cd  0.22241921  0.24384498  0.77168295     1.59600
O178        O  0.20076970  0.29679071  0.76986827    -0.81100
O179        O  0.24259073  0.26432470  0.75179621    -1.91600
Cd180      Cd  0.27382592  0.26744623  0.76545937     1.59900
O181        O  0.19452429  0.26226687  0.78497881    -0.81000
O182        O  0.29895191  0.25672334  0.74305947    -0.79700
C183        C  0.21594649  0.20954818  0.73256809     0.82900
C184        C  0.22067535  0.29247202  0.69826573     0.82500
O185        O  0.27857062  0.24610172  0.71272265    -0.78600
C186        C  0.27080591  0.31940146  0.77281306     0.83300
O187        O  0.22871781  0.22195519  0.71972367    -0.78700
C188        C  0.18900011  0.28320670  0.78239686     0.83500
C189        C  0.26253163  0.23409264  0.80535143     0.83800
O190        O  0.24168219  0.23101753  0.79916144    -0.81100
O191        O  0.27240119  0.80556738  0.22993152    -0.78600
C192        C  0.21987728  0.81981963  0.28246537     0.82400
O193        O  0.29614378  0.76408868  0.29841213    -0.79800
O194        O  0.21397232  0.74854963  0.30520344    -0.81200
O195        O  0.21490336  0.74605656  0.22286128    -0.81000
O196        O  0.26117152  0.77594024  0.20928585    -0.79700
Zn197      Zn  0.26269549  0.79677781  0.26251855     1.55700
O198        O  0.19303928  0.75587420  0.25235069    -0.81100
Cd199      Cd  0.24793097  0.75348580  0.23299535     1.59700
Cd200      Cd  0.26861938  0.74546622  0.28443292     1.59600
O201        O  0.26635858  0.72386693  0.23116038    -0.81100
O202        O  0.24937584  0.76628008  0.26428748    -1.91600
Cd203      Cd  0.21699176  0.76814431  0.27589400     1.59900
O204        O  0.28161664  0.71784202  0.26571896    -0.81000
O205        O  0.20844434  0.80130778  0.28427572    -0.79700
C206        C  0.30197856  0.78499886  0.29579782     0.82900
C207        C  0.27033681  0.79557200  0.21073700     0.82500
O208        O  0.24019349  0.82014915  0.27421795    -0.78600
C209        C  0.19527010  0.74778375  0.23227465     0.83300
O210        O  0.29061563  0.79841851  0.28277047    -0.78700
C211        C  0.27855171  0.71197309  0.24488429     0.83500
C212        C  0.22713300  0.73540778  0.31671972     0.83800
O213        O  0.24812313  0.73223975  0.31108692    -0.81100
O214        O  0.75873208  0.20509889  0.21940723    -0.78600
C215        C  0.81040002  0.19114925  0.27420353     0.82400
O216        O  0.73279282  0.24512411  0.28581188    -0.79800
O217        O  0.81372994  0.26177098  0.29644813    -0.81200
O218        O  0.81678489  0.26502939  0.21286248    -0.81000
O219        O  0.76862577  0.23521349  0.19813405    -0.79700
Zn220      Zn  0.76853511  0.21353796  0.25171553     1.55700
O221        O  0.83686654  0.25785453  0.24466280    -0.81100
Cd222      Cd  0.78334058  0.25677705  0.22183473     1.59700
Cd223      Cd  0.76052201  0.26420533  0.27287606     1.59600
O224        O  0.76525238  0.28654801  0.21956326    -0.81100
O225        O  0.78099222  0.24418705  0.25357396    -1.91600
Cd226      Cd  0.81270145  0.24307765  0.26683006     1.59900
O227        O  0.74768287  0.29144736  0.25311611    -0.81000
O228        O  0.82152704  0.20983167  0.27602098    -0.79700
C229        C  0.72789562  0.22407639  0.28330373     0.82900
C230        C  0.75931935  0.21560186  0.20014249     0.82500
O231        O  0.79067574  0.19045917  0.26468728    -0.78600
C232        C  0.83556607  0.26555475  0.22412536     0.83300
O233        O  0.74033026  0.21122585  0.27109107    -0.78700
C234        C  0.75192904  0.29776139  0.23248286     0.83500
C235        C  0.79977833  0.27419210  0.30750340     0.83800
O236        O  0.77906544  0.27717574  0.30076877    -0.81100
O237        O  0.73148469  0.22259603  0.81359572    -0.78600
C238        C  0.79758782  0.24934535  0.79271079     0.82400
O239        O  0.71584460  0.27689555  0.75120032    -0.79800
O240        O  0.78533747  0.24264375  0.72106176    -0.81200
O241        O  0.75475906  0.17230306  0.75151704    -0.81000
O242        O  0.72163020  0.19058173  0.79592823    -0.79700
Zn243      Zn  0.74529778  0.24379759  0.78960260     1.55700
O244        O  0.78716044  0.19137758  0.74442924    -0.81100
Cd245      Cd  0.73218078  0.19747639  0.76234725     1.59700
Cd246      Cd  0.72947781  0.24771225  0.73625163     1.59600
O247        O  0.70441032  0.19523745  0.74045163    -0.81100
O248        O  0.74611517  0.22872443  0.76002608    -1.91600
Cd249      Cd  0.77877482  0.22478849  0.75073907     1.59900
O250        O  0.70250241  0.22876185  0.72201377    -0.81000
O251        O  0.80090658  0.23769752  0.77477125    -0.79700
C252        C  0.71611919  0.28384078  0.77187211     0.82900
C253        C  0.72290008  0.20254741  0.81403319     0.82500
O254        O  0.77735851  0.25327080  0.80007487    -0.78600
C255        C  0.77566735  0.17288130  0.74491990     0.83300
O256        O  0.72620355  0.27252030  0.78772047    -0.78700
C257        C  0.69515478  0.20847509  0.72565312     0.83500
C258        C  0.77367521  0.25494706  0.70726960     0.83800
O259        O  0.75222503  0.25845376  0.71035098    -0.81100
C260        C  0.64554075  0.85032568  0.95992965     0.86300
C261        C  0.61939719  0.84641292  0.96097287    -0.53900
C262        C  0.60885862  0.85584832  0.97955813     0.09300
C263        C  0.62570099  0.86825841  0.99567019     0.20200
C264        C  0.64856314  0.87624763  0.96161191    -0.54600
C265        C  0.63788576  0.88589781  0.97996278     0.09400
C266        C  0.65446516  0.84116218  0.98310110    -0.54200
C267        C  0.64416163  0.85039179  0.00183089     0.09900
H268        H  0.61001098  0.83757721  0.94764482     0.14400
H269        H  0.61718755  0.87549057  0.01091085     0.00200
H270        H  0.65816693  0.88608403  0.94894947     0.14800
H271        H  0.66814963  0.82892180  0.98510118     0.14500
C272        C  0.64837514  0.12873066  0.04017456     0.86300
C273        C  0.62275670  0.13552704  0.03886937    -0.53900
C274        C  0.61116138  0.12642197  0.02066071     0.09300
C275        C  0.62642415  0.11163214  0.00519789     0.20200
C276        C  0.64776522  0.10257748  0.03991383    -0.54600
C277        C  0.63651320  0.09354246  0.02159012     0.09400
C278        C  0.65829892  0.13580395  0.01678071    -0.54200
C279        C  0.64695996  0.12694409  0.99837985     0.09900
H280        H  0.61393910  0.14527374  0.05175660     0.14400
H281        H  0.61726017  0.10427159  0.99033277     0.00200
H282        H  0.65605157  0.09210450  0.05295209     0.14800
H283        H  0.67302341  0.14712848  0.01505562     0.14500
C284        C  0.36254949  0.86554274  0.03116308     0.86300
C285        C  0.38856472  0.86271621  0.02814655    -0.53900
C286        C  0.39718368  0.87129588  0.00794657     0.09300
C287        C  0.37850669  0.88227669  0.99247247     0.20200
C288        C  0.35820841  0.89108629  0.02771411    -0.54600
C289        C  0.36652096  0.89998768  0.00763861     0.09400
C290        C  0.35210348  0.85463894  0.00963536    -0.54200
C291        C  0.36011137  0.86350313  0.98935865     0.09900
H292        H  0.39924913  0.85495954  0.04132603     0.14400
H293        H  0.38496483  0.88950322  0.97602821     0.00200
H294        H  0.34938762  0.90134272  0.04030874     0.14800
H295        H  0.33937214  0.84121090  0.00985254     0.14500
C296        C  0.36522644  0.14720108  0.97228002     0.86300
C297        C  0.39104096  0.15184518  0.97636824    -0.53900
C298        C  0.39995055  0.14136386  0.99543055     0.09300
C299        C  0.38203738  0.12685785  0.00867809     0.20200
C300        C  0.36327564  0.12120516  0.97190436    -0.54600
C301        C  0.37183551  0.11028859  0.99087255     0.09400
C302        C  0.35370182  0.15415272  0.99482423    -0.54200
C303        C  0.36244681  0.14364001  0.01398759     0.09900
H304        H  0.40177458  0.16224507  0.96533880     0.14400
H305        H  0.38885739  0.11826531  0.02423191     0.00200
H306        H  0.35603525  0.11229626  0.95737736     0.14800
H307        H  0.34026041  0.16688693  0.99549816     0.14500
O308        O  0.23030553  0.70810993  0.73101389    -0.78600
C309        C  0.27680390  0.69605479  0.78895496     0.82400
O310        O  0.19659202  0.74656379  0.79629679    -0.79800
O311        O  0.27946260  0.76863776  0.80668811    -0.81200
O312        O  0.28156331  0.76978456  0.72501106    -0.81000
O313        O  0.23503339  0.73997074  0.71055089    -0.79700
Zn314      Zn  0.23582666  0.71729273  0.76371380     1.55700
O315        O  0.30260506  0.75971357  0.75538966    -0.81100
Cd316      Cd  0.24799695  0.76227399  0.73438480     1.59700
Cd317      Cd  0.22487178  0.76716886  0.78541850     1.59600
O318        O  0.22905766  0.79198828  0.73215792    -0.81100
O319        O  0.24646988  0.74850837  0.76585932    -1.91600
Cd320      Cd  0.27835977  0.74758442  0.77887909     1.59900
O321        O  0.21231736  0.79545810  0.76629178    -0.81000
O322        O  0.28762219  0.71494645  0.79032010    -0.79700
C323        C  0.19196826  0.72578961  0.79150984     0.82900
C324        C  0.22954908  0.71898108  0.71199575     0.82500
O325        O  0.25733246  0.69491165  0.77901312    -0.78600
C326        C  0.30093692  0.76792132  0.73508683     0.83300
O327        O  0.20564653  0.71403143  0.77950500    -0.78700
C328        C  0.21595057  0.80271264  0.74577906     0.83500
C329        C  0.26503571  0.77980357  0.81849083     0.83800
O330        O  0.24358569  0.78024957  0.81342154    -0.81100
C331        C  0.85628225  0.00951578  0.63913959     0.86300
C332        C  0.88241242  0.01171875  0.64141849    -0.53900
C333        C  0.89464244  0.99412314  0.63245470     0.09300
C334        C  0.87926860  0.97591216  0.62102704     0.20200
C335        C  0.85236247  0.00678806  0.61318882    -0.54600
C336        C  0.86434110  0.98933494  0.60355844     0.09400
C337        C  0.85053591  0.98610334  0.64952207    -0.54200
C338        C  0.86240177  0.96844899  0.64025916     0.09900
H339        H  0.89051287  0.02614839  0.64968574     0.14400
H340        H  0.88892329  0.96154536  0.61354511     0.00200
H341        H  0.84187057  0.01799792  0.60276227     0.14800
H342        H  0.83808283  0.98371565  0.66323406     0.14500
C343        C  0.14203348  0.02535056  0.65331239     0.86300
C344        C  0.14812370  0.02261007  0.62768186    -0.53900
C345        C  0.13977885  0.00314585  0.61804893     0.09300
C346        C  0.12650989  0.98777903  0.63511911     0.20200
C347        C  0.11574910  0.02279502  0.65400720    -0.54600
C348        C  0.10735151  0.00338770  0.64418511     0.09400
C349        C  0.15110631  0.00355087  0.66484613    -0.54200
C350        C  0.14300769  0.98370283  0.65568458     0.09900
H351        H  0.15686861  0.03528272  0.61728255     0.14400
H352        H  0.12014688  0.97193976  0.62719282     0.00200
H353        H  0.10483096  0.03569843  0.66140044     0.14800
H354        H  0.16314511  0.00399294  0.67905581     0.14500
C355        C  0.86671346  0.95945109  0.35363223     0.86300
C356        C  0.89288459  0.96267031  0.35043793    -0.53900
C357        C  0.90152629  0.98197733  0.36012872     0.09300
C358        C  0.88319416  0.99653232  0.37209329     0.20200
C359        C  0.86329635  0.96068026  0.37971556    -0.54600
C360        C  0.87164937  0.98007593  0.38973179     0.09400
C361        C  0.85624409  0.98144793  0.34415277    -0.54200
C362        C  0.86502452  0.00098584  0.35321030     0.09900
H363        H  0.90407457  0.95066926  0.34209502     0.14400
H364        H  0.89030901  0.01241352  0.37934990     0.00200
H365        H  0.85556541  0.94670795  0.38932469     0.14800
H366        H  0.84329906  0.98141614  0.33072764     0.14500
C367        C  0.14845278  0.03760675  0.36949991     0.86300
C368        C  0.12199898  0.03730324  0.36840119    -0.53900
C369        C  0.11195918  0.01827019  0.37789507     0.09300
C370        C  0.12958359  0.00143318  0.38830587     0.20200
C371        C  0.15376687  0.03459980  0.39525544    -0.54600
C372        C  0.14406911  0.01561783  0.40526861     0.09400
C373        C  0.15577658  0.01518137  0.35870876    -0.54200
C374        C  0.14593366  0.99618893  0.36826218     0.09900
H375        H  0.11214196  0.05098015  0.36056442     0.14400
H376        H  0.12170333  0.98587965  0.39589089     0.00200
H377        H  0.16336832  0.04687594  0.40513820     0.14800
H378        H  0.16784614  0.01452452  0.34453060     0.14500
O379        O  0.76456270  0.70000147  0.27156529    -0.78600
C380        C  0.71290785  0.68603149  0.21996704     0.82400
O381        O  0.78882973  0.74133167  0.20245815    -0.79800
O382        O  0.70684311  0.75597950  0.19738431    -0.81200
O383        O  0.71077720  0.76211973  0.27953800    -0.81000
O384        O  0.75623021  0.72954515  0.29338360    -0.79700
Zn385      Zn  0.75556592  0.70940199  0.23940575     1.55700
O386        O  0.68725952  0.75161113  0.25141120    -0.81100
Cd387      Cd  0.74325578  0.75247173  0.26952926     1.59700
Cd388      Cd  0.76175354  0.76023972  0.21676687     1.59600
O389        O  0.76378585  0.78098611  0.27071987    -0.81100
O390        O  0.74287898  0.73983217  0.23800776    -1.91600
Cd391      Cd  0.71004742  0.73766512  0.22760289     1.59900
O392        O  0.77622648  0.78765497  0.23511898    -0.81000
O393        O  0.70087259  0.70415333  0.21995731    -0.79700
C394        C  0.79478084  0.72066145  0.20613077     0.82900
C395        C  0.76411094  0.70951194  0.29106786     0.82500
O396        O  0.73364543  0.68609680  0.22694631    -0.78600
C397        C  0.69071485  0.76088185  0.27082638     0.83300
O398        O  0.78356515  0.70782571  0.21988959    -0.78700
C399        C  0.77537388  0.79285581  0.25636835     0.83500
C400        C  0.71967956  0.76859544  0.18478280     0.83800
O401        O  0.74072780  0.77253965  0.18991447    -0.81100
C402        C  0.96605596  0.63704583  0.85936746     0.86300
C403        C  0.96764619  0.61092637  0.85822962    -0.53900
C404        C  0.98658429  0.60188138  0.86866769     0.09300
C405        C  0.00285369  0.61995253  0.87883224     0.20200
C406        C  0.96826604  0.64218595  0.88506736    -0.54600
C407        C  0.98729836  0.63306858  0.89552747     0.09400
C408        C  0.98871942  0.64551801  0.84877587    -0.54200
C409        C  0.00805600  0.63703159  0.85901458     0.09900
H410        H  0.95488825  0.59992456  0.85062490     0.14400
H411        H  0.01839643  0.61238293  0.88679082     0.00200
H412        H  0.95553431  0.65209777  0.89410112     0.14800
H413        H  0.98937455  0.65820354  0.83507586     0.14500
C414        C  0.02581626  0.65237768  0.14334476     0.86300
C415        C  0.02384299  0.62721554  0.15048679    -0.53900
C416        C  0.00549456  0.61585922  0.14119912     0.09300
C417        C  0.99005032  0.63141235  0.12621296     0.20200
C418        C  0.02528227  0.65203790  0.11682142    -0.54600
C419        C  0.00651103  0.64115598  0.10795751     0.09400
C420        C  0.00269929  0.66284037  0.14992383    -0.54200
C421        C  0.98391750  0.65214808  0.14094454     0.09900
H422        H  0.03658528  0.61902466  0.16135132     0.14400
H423        H  0.97495673  0.62268051  0.11866031     0.00200
H424        H  0.03787007  0.66000072  0.10565496     0.14800
H425        H  0.00141347  0.67785128  0.16052212     0.14500
C426        C  0.96698669  0.35431097  0.86808958     0.86300
C427        C  0.96963288  0.35221156  0.89427518    -0.53900
C428        C  0.98878306  0.36268173  0.90290339     0.09300
C429        C  0.00387702  0.37405857  0.88428448     0.20200
C430        C  0.96833626  0.38003215  0.86302521    -0.54600
C431        C  0.98752155  0.39059009  0.87158881     0.09400
C432        C  0.98969617  0.34486053  0.85864012    -0.54200
C433        C  0.00890421  0.35507800  0.86713734     0.09900
H434        H  0.95681175  0.34391476  0.90505478     0.14400
H435        H  0.01971833  0.38210355  0.89104183     0.00200
H436        H  0.95500584  0.38902836  0.85361178     0.14800
H437        H  0.99118722  0.33081048  0.84696391     0.14500
C438        C  0.04689731  0.37077240  0.14610020     0.86300
C439        C  0.04136212  0.36352024  0.12147743    -0.53900
C440        C  0.02131554  0.37215983  0.11288854     0.09300
C441        C  0.00815080  0.38705005  0.13000080     0.20200
C442        C  0.04580376  0.39685122  0.14541068    -0.54600
C443        C  0.02564377  0.40554296  0.13699403     0.09400
C444        C  0.02546756  0.36334393  0.15983792    -0.54200
C445        C  0.00520942  0.37174037  0.15150781     0.09900
H446        H  0.05275253  0.35297382  0.11142746     0.14400
H447        H  0.99174882  0.39388468  0.12309810     0.00200
H448        H  0.05992427  0.40751393  0.15115665     0.14800
H449        H  0.02561717  0.35135076  0.17405728     0.14500
O450        O  0.28634628  0.24585215  0.19634468    -0.78600
C451        C  0.22262111  0.27333953  0.22013660     0.82400
O452        O  0.30588597  0.30456234  0.25320075    -0.79800
O453        O  0.24010178  0.26706709  0.29086550    -0.81200
O454        O  0.27188177  0.19882351  0.26450145    -0.81000
O455        O  0.29932494  0.21557475  0.21560002    -0.79700
Zn456      Zn  0.27498466  0.26816956  0.21974650     1.55700
O457        O  0.23837086  0.21599873  0.26985390    -0.81100
Cd458      Cd  0.29202887  0.22440812  0.24931413     1.59700
Cd459      Cd  0.29395853  0.27590155  0.27169021     1.59600
O460        O  0.32199702  0.22552095  0.26807170    -0.81100
O461        O  0.27681819  0.25485838  0.25031444    -1.91600
Cd462      Cd  0.24493299  0.24954937  0.26133218     1.59900
O463        O  0.32256413  0.25898490  0.28577489    -0.81000
O464        O  0.22064106  0.26148604  0.23846936    -0.79700
C465        C  0.30526360  0.30914167  0.23170254     0.82900
C466        C  0.29558429  0.22619530  0.19673283     0.82500
O467        O  0.24229358  0.27767271  0.21140572    -0.78600
C468        C  0.25101524  0.19840171  0.27125067     0.83300
O469        O  0.29483528  0.29621466  0.21768459    -0.78700
C470        C  0.33127097  0.23942441  0.28196634     0.83500
C471        C  0.25163486  0.28052528  0.30338609     0.83800
O472        O  0.27234434  0.28618782  0.29851218    -0.81100
C473        C  0.07025370  0.36193199  0.15442007    -0.03300
C474        C  0.08990671  0.36585308  0.14076078    -0.06000
C475        C  0.11130877  0.35686743  0.14701434    -0.21000
C476        C  0.11373618  0.34383037  0.16717805     0.24700
C477        C  0.09454796  0.34114976  0.18163383    -0.18600
C478        C  0.07316171  0.35004313  0.17537823    -0.08600
C479        C  0.13651363  0.33367879  0.17292756    -0.18800
C480        C  0.13864963  0.31467958  0.18601989    -0.23600
C481        C  0.16079743  0.30379927  0.19292502     0.26700
C482        C  0.15976488  0.28504666  0.20808098    -0.20400
C483        C  0.17979320  0.27476792  0.21628562    -0.10100
C484        C  0.20152071  0.28284905  0.20942922    -0.10600
C485        C  0.20269511  0.30106449  0.19358565    -0.03500
C486        C  0.18257638  0.31151561  0.18546428    -0.18600
H487        H  0.08856116  0.37552784  0.12488881     0.10400
H488        H  0.12591718  0.35973119  0.13581619     0.10500
H489        H  0.09597503  0.33241301  0.19800620     0.10200
H490        H  0.05928186  0.34765435  0.18739621     0.11300
H491        H  0.15157086  0.34177559  0.16549020     0.11400
H492        H  0.12311914  0.30635971  0.19222696     0.13300
H493        H  0.14332719  0.27855147  0.21403517     0.09800
H494        H  0.17822993  0.26067831  0.22834950     0.11900
H495        H  0.21918949  0.30771210  0.18799735     0.08500
H496        H  0.18437104  0.32570817  0.17364975     0.11300
C497        C  0.01400260  0.36827042  0.08889418    -0.03300
C498        C  0.01632667  0.34666760  0.07916810    -0.06000
C499        C  0.01134620  0.34334024  0.05601774    -0.21000
C500        C  0.00436687  0.36159688  0.04196283     0.24700
C501        C  0.00131307  0.38312724  0.05188891    -0.18600
C502        C  0.00603554  0.38638127  0.07518420    -0.08600
C503        C  0.00040332  0.35736289  0.01716943    -0.18800
C504        C  0.00241003  0.37365902  0.00080367    -0.23600
C505        C  0.99962803  0.36954692  0.97578006     0.26700
C506        C  0.00750795  0.38629730  0.96026399    -0.20400
C507        C  0.00446857  0.38380373  0.93665893    -0.10100
C508        C  0.99343436  0.36443855  0.92792923    -0.10600
C509        C  0.98587872  0.34743450  0.94339051    -0.03500
C510        C  0.98879132  0.34998741  0.96703479    -0.18600
H511        H  0.02218068  0.33236298  0.08947197     0.10400
H512        H  0.01351912  0.32653294  0.04892341     0.10500
H513        H  0.99525793  0.39746516  0.04180109     0.10200
H514        H  0.00416035  0.40320785  0.08230894     0.11300
H515        H  0.99737490  0.33985845  0.01230695     0.11400
H516        H  0.00737907  0.39073249  0.00576698     0.13300
H517        H  0.01579830  0.40158867  0.96645159     0.09800
H518        H  0.01008494  0.39749379  0.92538101     0.11900
H519        H  0.97752007  0.33217571  0.93726433     0.08500
H520        H  0.98200720  0.33680622  0.97823829     0.11300
C521        C  0.02186538  0.43048768  0.13421428    -0.03300
C522        C  0.04011089  0.44464240  0.12718730    -0.06000
C523        C  0.03742424  0.46820547  0.12591499    -0.21000
C524        C  0.01649514  0.47843065  0.13176793     0.24700
C525        C  0.99786621  0.46422832  0.13812698    -0.18600
C526        C  0.00053876  0.44044312  0.13919285    -0.08600
C527        C  0.01564325  0.50385418  0.13137414    -0.18800
C528        C  0.99844381  0.51680013  0.13958279    -0.23600
C529        C  0.00027383  0.54216207  0.14051105     0.26700
C530        C  0.98039387  0.55562008  0.13911556    -0.20400
C531        C  0.98190337  0.57949547  0.13973399    -0.10100
C532        C  0.00333890  0.59043691  0.14208659    -0.10600
C533        C  0.02312616  0.57682012  0.14401840    -0.03500
C534        C  0.02161053  0.55310724  0.14342690    -0.18600
H535        H  0.05660927  0.43748031  0.12272431     0.10400
H536        H  0.05203377  0.47855517  0.12073094     0.10500
H537        H  0.98132571  0.47125951  0.14246722     0.10200
H538        H  0.98615988  0.42990891  0.14460601     0.11300
H539        H  0.03066740  0.51245250  0.12432904     0.11400
H540        H  0.98267341  0.50895075  0.14571691     0.13300
H541        H  0.96368529  0.54764977  0.13721251     0.09800
H542        H  0.96626074  0.58931840  0.13846129     0.11900
H543        H  0.04004162  0.58438988  0.14543669     0.08500
H544        H  0.03727443  0.54342811  0.14543104     0.11300
C545        C  0.99121417  0.41576400  0.87027863    -0.03300
C546        C  0.01350936  0.42512050  0.86958830    -0.06000
C547        C  0.01685199  0.44879529  0.86923408    -0.21000
C548        C  0.99803284  0.46366246  0.86989843     0.24700
C549        C  0.97571233  0.45428751  0.87005975    -0.18600
C550        C  0.97237423  0.43069489  0.87034713    -0.08600
C551        C  0.00206378  0.48879644  0.86961571    -0.18800
C552        C  0.98723910  0.50349135  0.87920585    -0.23600
C553        C  0.98888777  0.52884565  0.87772073     0.26700
C554        C  0.96912971  0.54128042  0.88311699    -0.20400
C555        C  0.96880129  0.56491326  0.88071173    -0.10100
C556        C  0.98831946  0.57692063  0.87301924    -0.10600
C557        C  0.00859113  0.56480858  0.86876701    -0.03500
C558        C  0.00887355  0.54090610  0.87093777    -0.18600
H559        H  0.02841398  0.41418801  0.86908402     0.10400
H560        H  0.03421445  0.45552550  0.86870736     0.10500
H561        H  0.96070643  0.46509223  0.86971002     0.10200
H562        H  0.95494288  0.42421129  0.87106360     0.11300
H563        H  0.01756138  0.49508319  0.86133443     0.11400
H564        H  0.97227346  0.49660114  0.88803589     0.13300
H565        H  0.95358324  0.53261480  0.88868594     0.09800
H566        H  0.95307288  0.57385847  0.88464441     0.11900
H567        H  0.02392064  0.57373616  0.86305291     0.08500
H568        H  0.02466100  0.53207724  0.86718848     0.11300
C569        C  0.00217576  0.63935416  0.08302019    -0.03300
C570        C  0.97999086  0.64277430  0.07425176    -0.06000
C571        C  0.97582868  0.64122480  0.05071700    -0.21000
C572        C  0.99372684  0.63620751  0.03546143     0.24700
C573        C  0.01590759  0.63234397  0.04437470    -0.18600
C574        C  0.02008642  0.63408356  0.06790558    -0.08600
C575        C  0.98834033  0.63460085  0.01057795    -0.18800
C576        C  0.00420483  0.63702280  0.99384326    -0.23600
C577        C  0.99906430  0.63580017  0.96883524     0.26700
C578        C  0.01750760  0.63366569  0.95351806    -0.20400
C579        C  0.01375022  0.63271185  0.92986963    -0.10100
C580        C  0.99141491  0.63422821  0.92079764    -0.10600
C581        C  0.97290472  0.63630005  0.93617008    -0.03500
C582        C  0.97664285  0.63717755  0.95983164    -0.18600
H583        H  0.96592424  0.64701614  0.08555907     0.10400
H584        H  0.95857355  0.64415174  0.04437125     0.10500
H585        H  0.03001927  0.62757326  0.03341692     0.10200
H586        H  0.03725008  0.63090226  0.07436133     0.11300
H587        H  0.97047739  0.63175771  0.00617080     0.11400
H588        H  0.02198620  0.64013804  0.99848610     0.13300
H589        H  0.03497744  0.63262257  0.95988377     0.09800
H590        H  0.02849776  0.63093795  0.91885873     0.11900
H591        H  0.95536341  0.63692856  0.93004494     0.08500
H592        H  0.96184154  0.63922260  0.97076272     0.11300
C593        C  0.81511786  0.71078274  0.19448547    -0.03300
C594        C  0.82108775  0.68798119  0.19902241    -0.06000
C595        C  0.84042716  0.67835548  0.18900034    -0.21000
C596        C  0.85455187  0.69114291  0.17418460     0.24700
C597        C  0.84829709  0.71383316  0.16898423    -0.18600
C598        C  0.82878675  0.72354405  0.17910148    -0.08600
C599        C  0.87571978  0.67996007  0.16534086    -0.18800
C600        C  0.89354462  0.69106641  0.15547257    -0.23600
C601        C  0.91603145  0.68015085  0.15009284     0.26700
C602        C  0.93514150  0.69437450  0.14637733    -0.20400
C603        C  0.95698135  0.68523840  0.14307165    -0.10100
C604        C  0.96033675  0.66155062  0.14326956    -0.10600
C605        C  0.94115561  0.64718591  0.14582844    -0.03500
C606        C  0.91919725  0.65634501  0.14921638    -0.18600
H607        H  0.81093144  0.67747612  0.21060618     0.10400
H608        H  0.84460406  0.66084778  0.19325142     0.10500
H609        H  0.85827108  0.72421287  0.15720391     0.10200
H610        H  0.82451162  0.74104950  0.17501182     0.11300
H611        H  0.87728288  0.66190583  0.16898926     0.11400
H612        H  0.89257654  0.70934675  0.15297043     0.13300
H613        H  0.93328584  0.71271362  0.14655194     0.09800
H614        H  0.97130562  0.69680378  0.14039650     0.11900
H615        H  0.94320501  0.62887751  0.14580068     0.08500
H616        H  0.90494379  0.64463380  0.15117757     0.11300
C617        C  0.15949440  0.05786171  0.35681208    -0.03300
C618        C  0.15199673  0.06325982  0.33442612    -0.06000
C619        C  0.16242258  0.08070951  0.32160615    -0.21000
C620        C  0.18120219  0.09281813  0.33039720     0.24700
C621        C  0.18913793  0.08732394  0.35255281    -0.18600
C622        C  0.17847930  0.07004039  0.36557124    -0.08600
C623        C  0.19123726  0.11174591  0.31640540    -0.18800
C624        C  0.21320256  0.11896855  0.31819238    -0.23600
C625        C  0.22244294  0.13873813  0.30478739     0.26700
C626        C  0.24608525  0.14006481  0.29998737    -0.20400
C627        C  0.25535990  0.15905325  0.28840150    -0.10100
C628        C  0.24119255  0.17730543  0.28170406    -0.10600
C629        C  0.21752659  0.17589337  0.28647352    -0.03500
C630        C  0.20826675  0.15689296  0.29785066    -0.18600
H631        H  0.13800665  0.05382317  0.32673168     0.10400
H632        H  0.15595292  0.08457055  0.30458147     0.10500
H633        H  0.20338778  0.09652666  0.36002789     0.10200
H634        H  0.18571552  0.06605854  0.38216522     0.11300
H635        H  0.18016463  0.11949040  0.30353670     0.11400
H636        H  0.22500621  0.10981642  0.32935900     0.13300
H637        H  0.25742794  0.12642464  0.30534050     0.09800
H638        H  0.27369208  0.15969033  0.28521792     0.11900
H639        H  0.20612616  0.18970404  0.28176332     0.08500
H640        H  0.19010680  0.15687787  0.30184055     0.11300
C641        C  0.85541651  0.93849447  0.34279895    -0.03300
C642        C  0.83213788  0.93377527  0.34763387    -0.06000
C643        C  0.82073305  0.91544298  0.33751679    -0.21000
C644        C  0.83199804  0.90150567  0.32175894     0.24700
C645        C  0.85519336  0.90615635  0.31665404    -0.18600
C646        C  0.86672145  0.92440667  0.32696217    -0.08600
C647        C  0.81915071  0.88185762  0.31188727    -0.18800
C648        C  0.82486343  0.87126699  0.29225360    -0.23600
C649        C  0.81185548  0.85129621  0.28315858     0.26700
C650        C  0.81300720  0.84622920  0.25966093    -0.20400
C651        C  0.80117688  0.82738609  0.25073296    -0.10100
C652        C  0.78806639  0.81306047  0.26519522    -0.10600
C653        C  0.78725631  0.81800734  0.28875226    -0.03500
C654        C  0.79901343  0.83673252  0.29761431    -0.18600
H655        H  0.82267791  0.94441548  0.35932692     0.10400
H656        H  0.80289178  0.91227696  0.34188183     0.10500
H657        H  0.86465511  0.89560299  0.30492827     0.10200
H658        H  0.88430042  0.92743863  0.32191972     0.11300
H659        H  0.80369990  0.87652898  0.32092341     0.11400
H660        H  0.83901171  0.87783606  0.28197772     0.13300
H661        H  0.82299331  0.85697166  0.24814246     0.09800
H662        H  0.80232363  0.82403537  0.23255899     0.11900
H663        H  0.77761145  0.80726024  0.30054800     0.08500
H664        H  0.79831617  0.83938308  0.31591225     0.11300
C665        C  0.92639164  0.98787445  0.35935673    -0.03300
C666        C  0.93893318  0.98600057  0.33889547    -0.06000
C667        C  0.96253603  0.99084309  0.33841909    -0.21000
C668        C  0.97418847  0.99726301  0.35845099     0.24700
C669        C  0.96147351  0.99947971  0.37884372    -0.18600
C670        C  0.93787070  0.99479967  0.37923580    -0.08600
C671        C  0.99939397  0.00198096  0.35733694    -0.18800
C672        C  0.01340185  0.00037840  0.37574169    -0.23600
C673        C  0.03865836  0.00491641  0.37525815     0.26700
C674        C  0.05204983  0.99696259  0.39368682    -0.20400
C675        C  0.07570077  0.00122347  0.39448118    -0.10100
C676        C  0.08665177  0.01381469  0.37699804    -0.10600
C677        C  0.07325469  0.02186039  0.35849920    -0.03500
C678        C  0.04955125  0.01752077  0.35763318    -0.18600
H679        H  0.93043488  0.98087308  0.32324839     0.10400
H680        H  0.97178936  0.98926653  0.32240938     0.10500
H681        H  0.96956027  0.00503389  0.39451690     0.10200
H682        H  0.92874820  0.99605145  0.39525818     0.11300
H683        H  0.00662961  0.00579390  0.34058465     0.11400
H684        H  0.00627982  0.99456348  0.39198997     0.13300
H685        H  0.04416578  0.98737056  0.40761264     0.09800
H686        H  0.08522741  0.99489348  0.40904170     0.11900
H687        H  0.08109441  0.03133817  0.34449751     0.08500
H688        H  0.03990288  0.02441271  0.34332868     0.11300
C689        C  0.14689679  0.01004403  0.43026335    -0.03300
C690        C  0.16682954  0.01679413  0.44212501    -0.06000
C691        C  0.16889146  0.01305337  0.46577836    -0.21000
C692        C  0.15108268  0.00261084  0.47835514     0.24700
C693        C  0.13152968  0.99495590  0.46641623    -0.18600
C694        C  0.12954237  0.99858795  0.44267776    -0.08600
C695        C  0.15377865  0.00015253  0.50374698    -0.18800
C696        C  0.13604766  0.99773692  0.51856496    -0.23600
C697        C  0.13847605  0.99749143  0.54412541     0.26700
C698        C  0.11967808  0.99023422  0.55754081    -0.20400
C699        C  0.12048022  0.99115992  0.58152716    -0.10100
C700        C  0.14006362  0.99959813  0.59275009    -0.10600
C701        C  0.15902634  0.00654528  0.57942666    -0.03500
C702        C  0.15828212  0.00553990  0.55544695    -0.18600
H703        H  0.18094319  0.02502137  0.43316381     0.10400
H704        H  0.18434520  0.01878283  0.47437540     0.10500
H705        H  0.11773315  0.98609475  0.47522556     0.10200
H706        H  0.11411759  0.99284058  0.43428301     0.11300
H707        H  0.17114262  0.00147083  0.51033864     0.11400
H708        H  0.11870183  0.99646062  0.51186357     0.13300
H709        H  0.10409711  0.98418646  0.54940514     0.09800
H710        H  0.10537202  0.98614204  0.59121184     0.11900
H711        H  0.17436240  0.01315407  0.58755903     0.08500
H712        H  0.17301817  0.01185060  0.54602993     0.11300
C713        C  0.86315617  0.98500170  0.57840903    -0.03300
C714        C  0.84204608  0.98691837  0.56681762    -0.06000
C715        C  0.84092310  0.98528333  0.54294713    -0.21000
C716        C  0.86088912  0.98207243  0.52991115     0.24700
C717        C  0.88200302  0.97945904  0.54149095    -0.18600
C718        C  0.88305856  0.98078099  0.56552365    -0.08600
C719        C  0.85867598  0.98094644  0.50444361    -0.18800
C720        C  0.87558074  0.98678040  0.48959098    -0.23600
C721        C  0.87295639  0.98614678  0.46406014     0.26700
C722        C  0.88803687  0.99902378  0.45020966    -0.20400
C723        C  0.88694629  0.99795682  0.42620874    -0.10100
C724        C  0.87107458  0.98351723  0.41528806    -0.10600
C725        C  0.85537172  0.97132142  0.42925644    -0.03500
C726        C  0.85639356  0.97246065  0.45321131    -0.18600
H727        H  0.82633621  0.98989187  0.57625260     0.10400
H728        H  0.82438496  0.98702354  0.53457318     0.10500
H729        H  0.89767197  0.97630964  0.53208474     0.10200
H730        H  0.89953699  0.97927357  0.57389162     0.11300
H731        H  0.84183365  0.97654109  0.49781363     0.11400
H732        H  0.89174617  0.99318072  0.49630422     0.13300
H733        H  0.90088741  0.00986660  0.45800308     0.09800
H734        H  0.89900765  0.00812425  0.41645156     0.11900
H735        H  0.84226759  0.96059573  0.42181931     0.08500
H736        H  0.84455432  0.96200926  0.46305437     0.11300
C737        C  0.92012855  0.99302805  0.63484466    -0.03300
C738        C  0.93074180  0.00195672  0.65448354    -0.06000
C739        C  0.95460366  0.00356592  0.65599603    -0.21000
C740        C  0.96857807  0.99593259  0.63815259     0.24700
C741        C  0.95814090  0.98602874  0.61887760    -0.18600
C742        C  0.93409807  0.98447113  0.61733962    -0.08600
C743        C  0.99373933  0.99992489  0.63991060    -0.18800
C744        C  0.00975012  0.98731234  0.62939374    -0.23600
C745        C  0.03472014  0.99169600  0.63261795     0.26700
C746        C  0.05010877  0.97339891  0.63319967    -0.20400
C747        C  0.07356637  0.97707184  0.63729597    -0.10100
C748        C  0.08224328  0.99923512  0.64037621    -0.10600
C749        C  0.06679593  0.01760529  0.63889010    -0.03500
C750        C  0.04336441  0.01388495  0.63518353    -0.18600
H751        H  0.92057465  0.00804447  0.66866714     0.10400
H752        H  0.96218614  0.01106616  0.67111772     0.10500
H753        H  0.96840179  0.98025505  0.60463989     0.10200
H754        H  0.92653294  0.97736697  0.60210930     0.11300
H755        H  0.99934434  0.01321139  0.65147268     0.11400
H756        H  0.00458920  0.97253148  0.61962794     0.13300
H757        H  0.04386488  0.95615216  0.63108135     0.09800
H758        H  0.08471106  0.96243041  0.63843453     0.11900
H759        H  0.07272804  0.03501284  0.64016848     0.08500
H760        H  0.03208279  0.02845685  0.63398624     0.11300
C761        C  0.14963028  0.96068689  0.66503926    -0.03300
C762        C  0.15090438  0.94167623  0.65071576    -0.06000
C763        C  0.15809482  0.92044363  0.65937332    -0.21000
C764        C  0.16409511  0.91747235  0.68261715     0.24700
C765        C  0.16253461  0.93645671  0.69703779    -0.18600
C766        C  0.15532506  0.95765950  0.68838689    -0.08600
C767        C  0.17289635  0.89469334  0.69062462    -0.18800
C768        C  0.17556841  0.88819074  0.71286639    -0.23600
C769        C  0.18533667  0.86571436  0.72058345     0.26700
C770        C  0.18193528  0.85830733  0.74340852    -0.20400
C771        C  0.19151520  0.83782524  0.75161252    -0.10100
C772        C  0.20497791  0.82422437  0.73723449    -0.10600
C773        C  0.20838677  0.83165246  0.71440187    -0.03500
C774        C  0.19880052  0.85205783  0.70620916    -0.18600
H775        H  0.14699091  0.94327266  0.63263154     0.10400
H776        H  0.15922769  0.90628129  0.64772211     0.10500
H777        H  0.16727702  0.93530601  0.71492300     0.10200
H778        H  0.15422628  0.97171824  0.70013586     0.11300
H779        H  0.17695297  0.88263920  0.67731942     0.11400
H780        H  0.16995346  0.89950039  0.72626488     0.13300
H781        H  0.17184916  0.86847200  0.75501677     0.09800
H782        H  0.18856215  0.83277772  0.76928972     0.11900
H783        H  0.21875180  0.82178318  0.70278466     0.08500
H784        H  0.20253923  0.85721960  0.68875213     0.11300
C785        C  0.17023442  0.71448379  0.79933072    -0.03300
C786        C  0.16467451  0.69271990  0.79100051    -0.06000
C787        C  0.14423879  0.68177832  0.79726932    -0.21000
C788        C  0.12877805  0.69196643  0.81235915     0.24700
C789        C  0.13423649  0.71366186  0.82100454    -0.18600
C790        C  0.15474683  0.72484945  0.81446490    -0.08600
C791        C  0.10680549  0.67971152  0.81754510    -0.18800
C792        C  0.09467672  0.68204525  0.83705704    -0.23600
C793        C  0.07315925  0.66887905  0.84209762     0.26700
C794        C  0.06690178  0.66468085  0.86502652    -0.20400
C795        C  0.04634168  0.65329566  0.87046349    -0.10100
C796        C  0.03132775  0.64613584  0.85312122    -0.10600
C797        C  0.03760339  0.65016833  0.83013673    -0.03500
C798        C  0.05829379  0.66132372  0.82465572    -0.18600
H799        H  0.17601396  0.68410604  0.77925761     0.10400
H800        H  0.14049351  0.66517842  0.79024635     0.10500
H801        H  0.12247327  0.72225029  0.83231985     0.10200
H802        H  0.15840507  0.74159945  0.82112572     0.11300
H803        H  0.10122132  0.66710966  0.80524847     0.11400
H804        H  0.10132902  0.69303088  0.85036710     0.13300
H805        H  0.07784855  0.67048376  0.87882088     0.09800
H806        H  0.04169777  0.65112252  0.88826249     0.11900
H807        H  0.02624379  0.64506857  0.81638872     0.08500
H808        H  0.06214249  0.66469863  0.80678720     0.11300
C809        C  0.35482468  0.14922847  0.03765690    -0.03300
C810        C  0.37066687  0.14924468  0.05585751    -0.06000
C811        C  0.36390964  0.15570635  0.07785406    -0.21000
C812        C  0.34126129  0.16257906  0.08214077     0.24700
C813        C  0.32518641  0.16191164  0.06410442    -0.18600
C814        C  0.33192134  0.15535578  0.04211544    -0.08600
C815        C  0.33509057  0.17045188  0.10551744    -0.18800
C816        C  0.31860950  0.18602330  0.10924212    -0.23600
C817        C  0.31340006  0.19575240  0.13210692     0.26700
C818        C  0.30288575  0.21716425  0.13287118    -0.20400
C819        C  0.29735231  0.22702869  0.15380325    -0.10100
C820        C  0.30195368  0.21560643  0.17462333    -0.10600
C821        C  0.31238212  0.19405494  0.17393573    -0.03500
C822        C  0.31804544  0.18420259  0.15290050    -0.18600
H823        H  0.38850653  0.14497078  0.05301625     0.10400
H824        H  0.37660560  0.15595256  0.09144465     0.10500
H825        H  0.30737776  0.16630822  0.06692179     0.10200
H826        H  0.31915598  0.15503632  0.02860839     0.11300
H827        H  0.34574308  0.16468442  0.11970517     0.11400
H828        H  0.30954363  0.19329979  0.09463668     0.13300
H829        H  0.29902570  0.22640534  0.11715322     0.09800
H830        H  0.28932466  0.24362298  0.15361629     0.11900
H831        H  0.31604016  0.18472708  0.18963934     0.08500
H832        H  0.32561888  0.16742289  0.15302060     0.11300
C833        C  0.35048749  0.85634652  0.96686470    -0.03300
C834        C  0.36440962  0.85499701  0.94730254    -0.06000
C835        C  0.35527906  0.84710100  0.92658602    -0.21000
C836        C  0.33201282  0.84057707  0.92489566     0.24700
C837        C  0.31806187  0.84227299  0.94449120    -0.18600
C838        C  0.32714744  0.85020888  0.96507287    -0.08600
C839        C  0.32342420  0.83092253  0.90289227    -0.18800
C840        C  0.30093981  0.82763128  0.89780494    -0.23600
C841        C  0.29228139  0.81609963  0.87674301     0.26700
C842        C  0.26842880  0.81549631  0.87255736    -0.20400
C843        C  0.25938553  0.80392088  0.85364849    -0.10100
C844        C  0.27403188  0.79257559  0.83849264    -0.10600
C845        C  0.29787660  0.79336799  0.84257495    -0.03500
C846        C  0.30688039  0.80485602  0.86139053    -0.18600
H847        H  0.38247664  0.85942109  0.94815655     0.10400
H848        H  0.36653342  0.84581739  0.91187307     0.10500
H849        H  0.30024454  0.83703745  0.94439622     0.10200
H850        H  0.31576875  0.85145569  0.97967822     0.11300
H851        H  0.33647316  0.82643834  0.89055149     0.11400
H852        H  0.28793833  0.83356024  0.90956728     0.13300
H853        H  0.25668193  0.82385878  0.88409788     0.09800
H854        H  0.24095534  0.80368256  0.85103897     0.11900
H855        H  0.30976214  0.78489660  0.83126619     0.08500
H856        H  0.32525913  0.80433761  0.86382344     0.11300
C857        C  0.37152739  0.08491076  0.99336413    -0.03300
C858        C  0.38850058  0.07352237  0.00614050    -0.06000
C859        C  0.38918788  0.04974863  0.00709107    -0.21000
C860        C  0.37268611  0.03666279  0.99558966     0.24700
C861        C  0.35532410  0.04794079  0.98316845    -0.18600
C862        C  0.35470157  0.07173781  0.98218431    -0.08600
C863        C  0.37474285  0.01142708  0.99631846    -0.18800
C864        C  0.35706449  0.99702447  0.99259693    -0.23600
C865        C  0.35944463  0.97190686  0.99462606     0.26700
C866        C  0.34057476  0.95888442  0.00216235    -0.20400
C867        C  0.34270321  0.93541330  0.00577398    -0.10100
C868        C  0.36364698  0.92441495  0.00148428    -0.10600
C869        C  0.38212132  0.93722237  0.99272646    -0.03500
C870        C  0.38011006  0.96075698  0.98937990    -0.18600
H871        H  0.40172748  0.08282499  0.01501392     0.10400
H872        H  0.40278041  0.04153048  0.01677401     0.10500
H873        H  0.34249309  0.03854161  0.97371163     0.10200
H874        H  0.34098188  0.07974818  0.97255315     0.11300
H875        H  0.39129328  0.00448460  0.00134633     0.11400
H876        H  0.33992685  0.00371965  0.98979696     0.13300
H877        H  0.32436226  0.96700312  0.00597748     0.09800
H878        H  0.32804223  0.92586981  0.01221213     0.11900
H879        H  0.39840643  0.92927813  0.98933630     0.08500
H880        H  0.39478299  0.97017669  0.98282902     0.11300
C881        C  0.42462999  0.14392965  0.00216904    -0.03300
C882        C  0.43700626  0.16395063  0.99668424    -0.06000
C883        C  0.46064262  0.16547509  0.00096380    -0.21000
C884        C  0.47253935  0.14703403  0.01071750     0.24700
C885        C  0.45994971  0.12757535  0.01751788    -0.18600
C886        C  0.43632840  0.12610647  0.01327999    -0.08600
C887        C  0.49799405  0.14852816  0.01338335    -0.18800
C888        C  0.51158897  0.12999194  0.01306276    -0.23600
C889        C  0.53718906  0.13042257  0.01440623     0.26700
C890        C  0.54912547  0.11074362  0.00812645    -0.20400
C891        C  0.57305992  0.10971752  0.00971419    -0.10100
C892        C  0.58577005  0.12833743  0.01778351    -0.10600
C893        C  0.57392174  0.14814630  0.02405062    -0.03500
C894        C  0.54988213  0.14921469  0.02238940    -0.18600
H895        H  0.42850795  0.17846037  0.98890000     0.10400
H896        H  0.46977781  0.18089375  0.99604931     0.10500
H897        H  0.46826656  0.11337600  0.02603451     0.10200
H898        H  0.42748670  0.11062666  0.01816575     0.11300
H899        H  0.50566177  0.16537876  0.01388405     0.11400
H900        H  0.50367120  0.11344799  0.01050801     0.13300
H901        H  0.53985300  0.09593307  0.00211732     0.09800
H902        H  0.58150702  0.09400363  0.00526845     0.11900
H903        H  0.58323258  0.16281236  0.03030655     0.08500
H904        H  0.54141775  0.16456288  0.02784168     0.11300
C905        C  0.65085769  0.84343541  0.02556964    -0.03300
C906        C  0.65420443  0.85960351  0.04279420    -0.06000
C907        C  0.66329423  0.85306191  0.06419655    -0.21000
C908        C  0.66882006  0.83018946  0.06893674     0.24700
C909        C  0.66477563  0.81396319  0.05182661    -0.18600
C910        C  0.65584956  0.82050871  0.03051638    -0.08600
C911        C  0.67982686  0.82385796  0.09127515    -0.18800
C912        C  0.67828824  0.80273931  0.10051062    -0.23600
C913        C  0.68913890  0.79547610  0.12253528     0.26700
C914        C  0.67911544  0.77721313  0.13461931    -0.20400
C915        C  0.68897322  0.76888634  0.15483031    -0.10100
C916        C  0.70948114  0.77829354  0.16340317    -0.10600
C917        C  0.71978821  0.79649677  0.15122894    -0.03500
C918        C  0.70963243  0.80512657  0.13102378    -0.18600
H919        H  0.65074495  0.87740218  0.03941105     0.10400
H920        H  0.66631258  0.86594800  0.07698419     0.10500
H921        H  0.66926557  0.79627689  0.05442141     0.10200
H922        H  0.65329445  0.80760939  0.01764697     0.11300
H923        H  0.68874935  0.83709938  0.10063229     0.11400
H924        H  0.66748951  0.79020240  0.09217340     0.13300
H925        H  0.66349609  0.76929784  0.12837884     0.09800
H926        H  0.68062528  0.75472856  0.16356877     0.11900
H927        H  0.73563324  0.80405127  0.15732034     0.08500
H928        H  0.71811966  0.81889126  0.12182531     0.11300
C929        C  0.42224290  0.87035795  0.00224268    -0.03300
C930        C  0.43276472  0.88759424  0.98896954    -0.06000
C931        C  0.45658323  0.88775116  0.98544524    -0.21000
C932        C  0.47043268  0.87032449  0.99450596     0.24700
C933        C  0.45987654  0.85262708  0.00717111    -0.18600
C934        C  0.43611188  0.85264690  0.01094778    -0.08600
C935        C  0.49583357  0.87170217  0.99134266    -0.18800
C936        C  0.50961916  0.85330539  0.99142694    -0.23600
C937        C  0.53502197  0.85460938  0.98836838     0.26700
C938        C  0.54653853  0.83583681  0.97924919    -0.20400
C939        C  0.57042791  0.83619772  0.97641881    -0.10100
C940        C  0.58345543  0.85525014  0.98299043    -0.10600
C941        C  0.57199322  0.87392509  0.99248292    -0.03500
C942        C  0.54804149  0.87364488  0.99512799    -0.18600
H943        H  0.42281525  0.90132845  0.98172524     0.10400
H944        H  0.46424210  0.90160647  0.97563085     0.10500
H945        H  0.46995111  0.83907444  0.01479159     0.10200
H946        H  0.42865688  0.83876013  0.02083232     0.11300
H947        H  0.50322510  0.88839905  0.98787716     0.11400
H948        H  0.50196798  0.83644297  0.99263434     0.13300
H949        H  0.53698045  0.82086158  0.97414204     0.09800
H950        H  0.57873224  0.82141318  0.96933074     0.11900
H951        H  0.58147013  0.88895675  0.99752300     0.08500
H952        H  0.53985677  0.88819827  0.00277831     0.11300
C953        C  0.63468721  0.06862662  0.01801474    -0.03300
C954        C  0.63156247  0.05374355  0.03678834    -0.06000
C955        C  0.63133517  0.03021372  0.03373057    -0.21000
C956        C  0.63417715  0.02092609  0.01186408     0.24700
C957        C  0.63701180  0.03588147  0.99295066    -0.18600
C958        C  0.63710470  0.05950398  0.99602992    -0.08600
C959        C  0.63512957  0.99566378  0.01000562    -0.18800
C960        C  0.63252259  0.98420595  0.99027782    -0.23600
C961        C  0.63387441  0.95891453  0.98850578     0.26700
C962        C  0.63599527  0.94947006  0.96664387    -0.20400
C963        C  0.63732379  0.92592110  0.96391112    -0.10100
C964        C  0.63663939  0.91106030  0.98303562    -0.10600
C965        C  0.63411984  0.92044688  0.00490822    -0.03500
C966        C  0.63269105  0.94404636  0.00765354    -0.18600
H967        H  0.62936191  0.06030641  0.05390938     0.10400
H968        H  0.62910378  0.01918696  0.04860205     0.10500
H969        H  0.63987480  0.02958264  0.97587136     0.10200
H970        H  0.63991501  0.07060576  0.98132189     0.11300
H971        H  0.63812540  0.98631813  0.02584072     0.11400
H972        H  0.62947278  0.99361761  0.97447121     0.13300
H973        H  0.63662757  0.96037607  0.95153397     0.09800
H974        H  0.63848002  0.91942994  0.94667814     0.11900
H975        H  0.63342877  0.90965291  0.02003040     0.08500
H976        H  0.63037316  0.95031409  0.02481435     0.11300
C977        C  0.81787205  0.25901208  0.80459539    -0.03300
C978        C  0.84006102  0.25185288  0.79859511    -0.06000
C979        C  0.85943430  0.26204675  0.80819932    -0.21000
C980        C  0.85721195  0.27987334  0.82378460     0.24700
C981        C  0.83503304  0.28672564  0.83035615    -0.18600
C982        C  0.81553346  0.27631118  0.82087956    -0.08600
C983        C  0.87858607  0.29058553  0.83258704    -0.18800
C984        C  0.88004479  0.31213746  0.84014227    -0.23600
C985        C  0.90234621  0.32285405  0.84655954     0.26700
C986        C  0.90267777  0.34072819  0.86225864    -0.20400
C987        C  0.92350248  0.35086083  0.86872312    -0.10100
C988        C  0.94458883  0.34347208  0.85958893    -0.10600
C989        C  0.94396219  0.32614531  0.84306823    -0.03500
C990        C  0.92319685  0.31606610  0.83665386    -0.18600
H991        H  0.84251664  0.23851034  0.78620055     0.10400
H992        H  0.87629823  0.25631767  0.80298246     0.10500
H993        H  0.83264859  0.29999397  0.84280640     0.10200
H994        H  0.79866311  0.28215607  0.82589756     0.11300
H995        H  0.89407609  0.28041883  0.83166238     0.11400
H996        H  0.86464480  0.32237106  0.84155371     0.13300
H997        H  0.88681621  0.34663985  0.86981139     0.09800
H998        H  0.92321057  0.36438034  0.88117331     0.11900
H999        H  0.95917098  0.32012447  0.83464788     0.08500
H1000       H  0.92360951  0.30319283  0.82356762     0.11300
C1001       C  0.71445034  0.19301593  0.83624267    -0.03300
C1002       C  0.71869038  0.20467931  0.85673226    -0.06000
C1003       C  0.71139319  0.19564654  0.87778685    -0.21000
C1004       C  0.69932298  0.17493848  0.87894890     0.24700
C1005       C  0.69489136  0.16322589  0.85850044    -0.18600
C1006       C  0.70244668  0.17216054  0.83736780    -0.08600
C1007       C  0.69265767  0.16578962  0.90190843    -0.18800
C1008       C  0.67448889  0.15191462  0.90573284    -0.23600
C1009       C  0.66780449  0.14417963  0.92923065     0.26700
C1010       C  0.64453496  0.14015088  0.93437440    -0.20400
C1011       C  0.63772491  0.13409589  0.95670499    -0.10100
C1012       C  0.65411522  0.13178259  0.97428178    -0.10600
C1013       C  0.67748920  0.13476804  0.96883748    -0.03500
C1014       C  0.68426605  0.14085211  0.94660407    -0.18600
H1015       H  0.72794246  0.22071985  0.85657817     0.10400
H1016       H  0.71516156  0.20494232  0.89327910     0.10500
H1017       H  0.68610129  0.14695110  0.85881426     0.10200
H1018       H  0.69897467  0.16268712  0.82193246     0.11300
H1019       H  0.70236839  0.17199659  0.91647873     0.11400
H1020       H  0.66326316  0.14745635  0.89159028     0.13300
H1021       H  0.63153413  0.14235583  0.92124081     0.09800
H1022       H  0.61958821  0.13197098  0.96033801     0.11900
H1023       H  0.69061884  0.13239181  0.98179911     0.08500
H1024       H  0.70242831  0.14286943  0.94306907     0.11300
C1025       C  0.78678472  0.15182806  0.73670538    -0.03300
C1026       C  0.81084720  0.15070448  0.73469885    -0.06000
C1027       C  0.82132248  0.13169825  0.72507244    -0.21000
C1028       C  0.80798739  0.11365374  0.71674030     0.24700
C1029       C  0.78395160  0.11443318  0.71928473    -0.18600
C1030       C  0.77347303  0.13328887  0.72928119    -0.08600
C1031       C  0.81964000  0.09426112  0.70558642    -0.18800
C1032       C  0.81023530  0.08293178  0.68793713    -0.23600
C1033       C  0.82214551  0.06430174  0.67574303     0.26700
C1034       C  0.81658750  0.06024118  0.65275528    -0.20400
C1035       C  0.82727224  0.04279379  0.64067010    -0.10100
C1036       C  0.84374494  0.02871179  0.65141140    -0.10600
C1037       C  0.84871063  0.03247967  0.67473513    -0.03500
C1038       C  0.83820994  0.05008686  0.68670662    -0.18600
H1039       H  0.82159514  0.16465734  0.74034476     0.10400
H1040       H  0.83987685  0.13138029  0.72352414     0.10500
H1041       H  0.77323478  0.10049200  0.71358681     0.10200
H1042       H  0.75490740  0.13364018  0.73058151     0.11300
H1043       H  0.83711441  0.09045201  0.71088852     0.11400
H1044       H  0.79373737  0.08844002  0.68118420     0.13300
H1045       H  0.80398913  0.07075281  0.64402011     0.09800
H1046       H  0.82214982  0.04051207  0.62309894     0.11900
H1047       H  0.86093078  0.02173704  0.68371863     0.08500
H1048       H  0.84239068  0.05221184  0.70463313     0.11300
C1049       C  0.85599180  0.27650066  0.21331612    -0.03300
C1050       C  0.85677237  0.28021413  0.18946874    -0.06000
C1051       C  0.87488236  0.29253297  0.17944894    -0.21000
C1052       C  0.89241659  0.30184915  0.19300626     0.24700
C1053       C  0.89201189  0.29761455  0.21683977    -0.18600
C1054       C  0.87402217  0.28502045  0.22684709    -0.08600
C1055       C  0.91107162  0.31523690  0.18152128    -0.18800
C1056       C  0.92379222  0.33121810  0.19213770    -0.23600
C1057       C  0.94328761  0.34369120  0.18101940     0.26700
C1058       C  0.96082178  0.35226782  0.19504512    -0.20400
C1059       C  0.98041479  0.36238187  0.18543801    -0.10100
C1060       C  0.98280520  0.36450165  0.16153505    -0.10600
C1061       C  0.96465323  0.35734113  0.14745167    -0.03500
C1062       C  0.94506577  0.34695793  0.15707891    -0.18600
H1063       H  0.84321040  0.27381135  0.17853990     0.10400
H1064       H  0.87492456  0.29522392  0.16103881     0.10500
H1065       H  0.90558922  0.30380898  0.22782529     0.10200
H1066       H  0.87391519  0.28248493  0.24527161     0.11300
H1067       H  0.91419040  0.31177577  0.16356762     0.11400
H1068       H  0.92060225  0.33468199  0.21008427     0.13300
H1069       H  0.95977189  0.35035740  0.21351552     0.09800
H1070       H  0.99403613  0.36804157  0.19671164     0.11900
H1071       H  0.96607103  0.35879114  0.12897576     0.08500
H1072       H  0.93154980  0.34134399  0.14570929     0.11300
C1073       C  0.66296613  0.13772449  0.05998025    -0.03300
C1074       C  0.68560625  0.12957776  0.06257792    -0.06000
C1075       C  0.69947801  0.13653230  0.08079457    -0.21000
C1076       C  0.69145626  0.15247477  0.09648874     0.24700
C1077       C  0.66913473  0.16117866  0.09374757    -0.18600
C1078       C  0.65503452  0.15388655  0.07576468    -0.08600
C1079       C  0.70647558  0.15936468  0.11584507    -0.18800
C1080       C  0.70685723  0.18076866  0.12374634    -0.23600
C1081       C  0.72207836  0.18832481  0.14265248     0.26700
C1082       C  0.73045776  0.21072294  0.14216277    -0.20400
C1083       C  0.74343468  0.21913293  0.16037109    -0.10100
C1084       C  0.74790868  0.20548522  0.17983665    -0.10600
C1085       C  0.73976869  0.18287073  0.18023094    -0.03500
C1086       C  0.72710213  0.17430285  0.16172857    -0.18600
H1087       H  0.69247569  0.11744644  0.05057464     0.10400
H1088       H  0.71663818  0.12962350  0.08248628     0.10500
H1089       H  0.66237015  0.17333237  0.10577145     0.10200
H1090       H  0.63813498  0.16122785  0.07443578     0.11300
H1091       H  0.71848943  0.14694008  0.12274939     0.11400
H1092       H  0.69654194  0.19367887  0.11515305     0.13300
H1093       H  0.72673307  0.22186113  0.12769942     0.09800
H1094       H  0.74926864  0.23665499  0.15951384     0.11900
H1095       H  0.74278413  0.17195536  0.19501811     0.08500
H1096       H  0.72050407  0.15705811  0.16276351     0.11300
C1097       C  0.85951514  0.02381988  0.34313436    -0.03300
C1098       C  0.85512235  0.02590657  0.31947919    -0.06000
C1099       C  0.84912303  0.04677919  0.30965323    -0.21000
C1100       C  0.84766482  0.06636699  0.32299976     0.24700
C1101       C  0.85255569  0.06460307  0.34664927    -0.18600
C1102       C  0.85851521  0.04348165  0.35659888    -0.08600
C1103       C  0.83984224  0.08772481  0.31145831    -0.18800
C1104       C  0.84363089  0.10890145  0.31926442    -0.23600
C1105       C  0.83548621  0.12963356  0.30670275     0.26700
C1106       C  0.84718983  0.15038018  0.30949638    -0.20400
C1107       C  0.83960672  0.17023723  0.29831346    -0.10100
C1108       C  0.81992774  0.16982939  0.28428880    -0.10600
C1109       C  0.80826380  0.14903018  0.28145925    -0.03500
C1110       C  0.81586774  0.12922609  0.29255547    -0.18600
H1111       H  0.85642494  0.01135957  0.30836138     0.10400
H1112       H  0.84557669  0.04759699  0.29142052     0.10500
H1113       H  0.85119758  0.07926094  0.35759193     0.10200
H1114       H  0.86172718  0.04242738  0.37486492     0.11300
H1115       H  0.83143116  0.08577736  0.29497626     0.11400
H1116       H  0.85386916  0.11126573  0.33461826     0.13300
H1117       H  0.86222866  0.15123581  0.32041631     0.09800
H1118       H  0.84885462  0.18600435  0.30108825     0.11900
H1119       H  0.79288986  0.14810441  0.27102523     0.08500
H1120       H  0.80587917  0.11381019  0.29050152     0.11300
C1121       C  0.15012197  0.97302996  0.35913904    -0.03300
C1122       C  0.15113479  0.95391825  0.37381277    -0.06000
C1123       C  0.15636398  0.93241166  0.36510049    -0.21000
C1124       C  0.16085071  0.92966285  0.34162981     0.24700
C1125       C  0.15884088  0.94863272  0.32684629    -0.18600
C1126       C  0.15357597  0.97002482  0.33550478    -0.08600
C1127       C  0.16782104  0.90698502  0.33299004    -0.18800
C1128       C  0.18227104  0.90478452  0.31509583    -0.23600
C1129       C  0.19117125  0.88263863  0.30696452     0.26700
C1130       C  0.21269003  0.88233344  0.29614546    -0.20400
C1131       C  0.22187780  0.86200697  0.28813960    -0.10100
C1132       C  0.20960262  0.84143844  0.29045541    -0.10600
C1133       C  0.18778229  0.84177555  0.30090437    -0.03500
C1134       C  0.17865488  0.86217020  0.30912063    -0.18600
H1135       H  0.14858897  0.95567934  0.39208797     0.10400
H1136       H  0.15757608  0.91801112  0.37681321     0.10500
H1137       H  0.16123918  0.94700389  0.30854255     0.10200
H1138       H  0.15214175  0.98424200  0.32360534     0.11300
H1139       H  0.16245221  0.89197345  0.34266905     0.11400
H1140       H  0.18939585  0.92001612  0.30703417     0.13300
H1141       H  0.22260607  0.89788881  0.29413016     0.09800
H1142       H  0.23869206  0.86243783  0.28018261     0.11900
H1143       H  0.17780073  0.82626613  0.30284780     0.08500
H1144       H  0.16174067  0.86191081  0.31683914     0.11300
C1145       C  0.27879451  0.80654029  0.18938257    -0.03300
C1146       C  0.26958100  0.79983955  0.16824442    -0.06000
C1147       C  0.27844311  0.80854707  0.14773731    -0.21000
C1148       C  0.29699017  0.82386363  0.14777022     0.24700
C1149       C  0.30583577  0.83121194  0.16894025    -0.18600
C1150       C  0.29669454  0.82268193  0.18959802    -0.08600
C1151       C  0.30633394  0.83149209  0.12525291    -0.18800
C1152       C  0.32790897  0.83927826  0.12191220    -0.23600
C1153       C  0.33698372  0.84491999  0.09869045     0.26700
C1154       C  0.35433997  0.86138380  0.09624521    -0.20400
C1155       C  0.36267692  0.86743591  0.07450039    -0.10100
C1156       C  0.35398487  0.85708864  0.05458749    -0.10600
C1157       C  0.33728963  0.83977745  0.05732085    -0.03500
C1158       C  0.32898781  0.83377255  0.07903279    -0.18600
H1159       H  0.25558925  0.78763324  0.16753261     0.10400
H1160       H  0.27112473  0.80281170  0.13171555     0.10500
H1161       H  0.31969458  0.84351270  0.16967051     0.10200
H1162       H  0.30403300  0.82820329  0.20567647     0.11300
H1163       H  0.29504686  0.82959317  0.11056715     0.11400
H1164       H  0.33930354  0.84171376  0.13641087     0.13300
H1165       H  0.36112842  0.86993408  0.11115583     0.09800
H1166       H  0.37572194  0.88060265  0.07313969     0.11900
H1167       H  0.33027429  0.83061243  0.04306151     0.08500
H1168       H  0.31643598  0.82016671  0.08030780     0.11300
C1169       C  0.04603033  0.66445468  0.15494785    -0.03300
C1170       C  0.04618472  0.66597534  0.17903105    -0.06000
C1171       C  0.06387151  0.67735205  0.19048233    -0.21000
C1172       C  0.08208643  0.68750591  0.17828459     0.24700
C1173       C  0.08232286  0.68561213  0.15423790    -0.18600
C1174       C  0.06457261  0.67431732  0.14276099    -0.08600
C1175       C  0.10070719  0.69907372  0.19145669    -0.18800
C1176       C  0.11733103  0.71218089  0.18192357    -0.23600
C1177       C  0.13663254  0.72212014  0.19524992     0.26700
C1178       C  0.15777653  0.72563901  0.18420292    -0.20400
C1179       C  0.17666518  0.73418202  0.19618256    -0.10100
C1180       C  0.17476234  0.73980659  0.21947559    -0.10600
C1181       C  0.15335404  0.73706208  0.23037316    -0.03500
C1182       C  0.13446942  0.72825531  0.21840578    -0.18600
H1183       H  0.03237366  0.65842911  0.18904206     0.10400
H1184       H  0.06326702  0.67824944  0.20901318     0.10500
H1185       H  0.09626165  0.69243114  0.14400833     0.10200
H1186       H  0.06592019  0.67336814  0.12439140     0.11300
H1187       H  0.10089089  0.69622386  0.20988301     0.11400
H1188       H  0.11778755  0.71496058  0.16354403     0.13300
H1189       H  0.15983677  0.72128154  0.16632792     0.09800
H1190       H  0.19283399  0.73624642  0.18717841     0.11900
H1191       H  0.15127741  0.74138797  0.24824250     0.08500
H1192       H  0.11822030  0.72644928  0.22727462     0.11300
C1193       C  0.35409952  0.15810802  0.95104994    -0.03300
C1194       C  0.36660078  0.17066189  0.93444409    -0.06000
C1195       C  0.35577414  0.17947223  0.91493750    -0.21000
C1196       C  0.33217742  0.17619445  0.91129200     0.24700
C1197       C  0.31953276  0.16363414  0.92770599    -0.18600
C1198       C  0.33039359  0.15473485  0.94726275    -0.08600
C1199       C  0.32193796  0.18619567  0.89006934    -0.18800
C1200       C  0.29922824  0.18792409  0.88574036    -0.23600
C1201       C  0.29010010  0.19968900  0.86492703     0.26700
C1202       C  0.26805730  0.19410357  0.85682071    -0.20400
C1203       C  0.25890149  0.20522640  0.83749733    -0.10100
C1204       C  0.27163063  0.22225368  0.82599417    -0.10600
C1205       C  0.29354167  0.22802377  0.83434443    -0.03500
C1206       C  0.30259247  0.21703923  0.85361466    -0.18600
H1207       H  0.38479181  0.17370016  0.93582653     0.10400
H1208       H  0.36600960  0.18898055  0.90256127     0.10500
H1209       H  0.30139815  0.16027629  0.92554425     0.10200
H1210       H  0.32025783  0.14493403  0.95947804     0.11300
H1211       H  0.33402271  0.19283193  0.87746752     0.11400
H1212       H  0.28677314  0.18066314  0.89757119     0.13300
H1213       H  0.25795874  0.18100175  0.86538676     0.09800
H1214       H  0.24195337  0.20042528  0.83152013     0.11900
H1215       H  0.30371581  0.24128181  0.82612528     0.08500
H1216       H  0.31917682  0.22263866  0.85980529     0.11300
C1217       C  0.03219288  0.34725864  0.86089282    -0.03300
C1218       C  0.04834604  0.34157278  0.87788296    -0.06000
C1219       C  0.06936893  0.33169683  0.87184497    -0.21000
C1220       C  0.07472960  0.32791730  0.84872225     0.24700
C1221       C  0.05853560  0.33391505  0.83178279    -0.18600
C1222       C  0.03752716  0.34344849  0.83782542    -0.08600
C1223       C  0.09689547  0.31713200  0.84244292    -0.18800
C1224       C  0.10763124  0.32258683  0.82269101    -0.23600
C1225       C  0.12918565  0.31210149  0.81440260     0.26700
C1226       C  0.14208252  0.32441152  0.79820130    -0.20400
C1227       C  0.16143941  0.31494680  0.78818529    -0.10100
C1228       C  0.16842646  0.29268378  0.79387861    -0.10600
C1229       C  0.15566652  0.28025558  0.81031461    -0.03500
C1230       C  0.13618853  0.28991466  0.82057157    -0.18600
H1231       H  0.04435527  0.34401714  0.89581945     0.10400
H1232       H  0.08145361  0.32701125  0.88520631     0.10500
H1233       H  0.06174778  0.33064445  0.81385148     0.10200
H1234       H  0.02522533  0.34754813  0.82446409     0.11300
H1235       H  0.10473491  0.30525480  0.85448757     0.11400
H1236       H  0.10057532  0.33618710  0.81207070     0.13300
H1237       H  0.13701414  0.34145140  0.79304361     0.09800
H1238       H  0.17075245  0.32511672  0.77563139     0.11900
H1239       H  0.16061952  0.26309678  0.81509351     0.08500
H1240       H  0.12632394  0.27978477  0.83270353     0.11300
C1241       C  0.20737671  0.18752917  0.72328721    -0.03300
C1242       C  0.21404240  0.18095242  0.70117374    -0.06000
C1243       C  0.20697778  0.16015745  0.69221832    -0.21000
C1244       C  0.19286571  0.14522015  0.70489789     0.24700
C1245       C  0.18598486  0.15168901  0.72707040    -0.18600
C1246       C  0.19321551  0.17264034  0.73616361    -0.08600
C1247       C  0.18646440  0.12315170  0.69406372    -0.18800
C1248       C  0.16961480  0.10883537  0.70120712    -0.23600
C1249       C  0.16326353  0.08765329  0.68859171     0.26700
C1250       C  0.15166384  0.06994337  0.70018445    -0.20400
C1251       C  0.14523344  0.05004019  0.68871866    -0.10100
C1252       C  0.15009161  0.04720958  0.66523025    -0.10600
C1253       C  0.16146514  0.06522725  0.65362589    -0.03500
C1254       C  0.16778125  0.08510244  0.66505702    -0.18600
H1255       H  0.22497552  0.19182445  0.69069308     0.10400
H1256       H  0.21261899  0.15573512  0.67514772     0.10500
H1257       H  0.17541106  0.14058765  0.73761149     0.10200
H1258       H  0.18787512  0.17708987  0.75330705     0.11300
H1259       H  0.19623233  0.11875682  0.67893748     0.11400
H1260       H  0.16012985  0.11250666  0.71671278     0.13300
H1261       H  0.14760946  0.07146895  0.71822158     0.09800
H1262       H  0.13626900  0.03676243  0.69822411     0.11900
H1263       H  0.16535694  0.06466209  0.63561541     0.08500
H1264       H  0.17571873  0.09862440  0.65507350     0.11300
C1265       C  0.53039825  0.15223094  0.65818068    -0.03300
C1266       C  0.53226481  0.15939360  0.68106257    -0.06000
C1267       C  0.55305302  0.16778895  0.68956770    -0.21000
C1268       C  0.57268259  0.16871401  0.67567733     0.24700
C1269       C  0.57117627  0.16090381  0.65302558    -0.18600
C1270       C  0.55020857  0.15283830  0.64434326    -0.08600
C1271       C  0.59400694  0.17908913  0.68499167    -0.18800
C1272       C  0.61525421  0.17218013  0.67934593    -0.23600
C1273       C  0.63609956  0.18203684  0.69013162     0.26700
C1274       C  0.65406933  0.16759433  0.69680865    -0.20400
C1275       C  0.67331304  0.17627973  0.70818530    -0.10100
C1276       C  0.67529331  0.19971843  0.71247927    -0.10600
C1277       C  0.65779685  0.21434870  0.70481872    -0.03500
C1278       C  0.63823394  0.20555518  0.69396634    -0.18600
H1279       H  0.51760390  0.15872523  0.69246240     0.10400
H1280       H  0.55380128  0.17362506  0.70710150     0.10500
H1281       H  0.58593290  0.16183956  0.64174741     0.10200
H1282       H  0.54939506  0.14791854  0.62654966     0.11300
H1283       H  0.59210569  0.19191936  0.69811500     0.11400
H1284       H  0.61734049  0.15770631  0.66814077     0.13300
H1285       H  0.65288408  0.14945974  0.69383910     0.09800
H1286       H  0.68666782  0.16463581  0.71368221     0.11900
H1287       H  0.65892923  0.23247182  0.70783275     0.08500
H1288       H  0.62479335  0.21712254  0.68854315     0.11300
C1289       C  0.31922304  0.24056586  0.71183059    -0.03300
C1290       C  0.34071327  0.24406359  0.72232633    -0.06000
C1291       C  0.36076499  0.23534678  0.71263415    -0.21000
C1292       C  0.35980171  0.22266156  0.69244352     0.24700
C1293       C  0.33842199  0.21966125  0.68155700    -0.18600
C1294       C  0.31836548  0.22853069  0.69115264    -0.08600
C1295       C  0.38137026  0.21276929  0.68330897    -0.18800
C1296       C  0.38175983  0.19317153  0.67159676    -0.23600
C1297       C  0.40335937  0.18189012  0.66445631     0.26700
C1298       C  0.40356599  0.15813823  0.66285440    -0.20400
C1299       C  0.42347294  0.14668800  0.65636197    -0.10100
C1300       C  0.44385990  0.15876463  0.65103306    -0.10600
C1301       C  0.44329891  0.18273499  0.65199438    -0.03500
C1302       C  0.42339477  0.19416467  0.65876685    -0.18600
H1303       H  0.34203773  0.25330034  0.73822568     0.10400
H1304       H  0.37703351  0.23804705  0.72125672     0.10500
H1305       H  0.33712562  0.21054438  0.66560094     0.10200
H1306       H  0.30213205  0.22561592  0.68255515     0.11300
H1307       H  0.39749755  0.22078490  0.68812219     0.11400
H1308       H  0.36579287  0.18395088  0.66883449     0.13300
H1309       H  0.38821937  0.14832019  0.66679281     0.09800
H1310       H  0.42221142  0.12846323  0.65513865     0.11900
H1311       H  0.45837796  0.19266960  0.64740336     0.08500
H1312       H  0.42361911  0.21257851  0.65910230     0.11300
C1313       C  0.44988289  0.85420227  0.66049444    -0.03300
C1314       C  0.43830306  0.86469167  0.67873630    -0.06000
C1315       C  0.42048614  0.85338994  0.69037553    -0.21000
C1316       C  0.41377842  0.83134032  0.68420638     0.24700
C1317       C  0.42588064  0.82039269  0.66671047    -0.18600
C1318       C  0.44390258  0.83154939  0.65529090    -0.08600
C1319       C  0.39477245  0.81992551  0.69699197    -0.18800
C1320       C  0.38077839  0.80428055  0.68755493    -0.23600
C1321       C  0.36090819  0.79407621  0.70002816     0.26700
C1322       C  0.34107034  0.78823314  0.68770759    -0.20400
C1323       C  0.32169150  0.77951800  0.69905081    -0.10100
C1324       C  0.32192991  0.77595579  0.72294369    -0.10600
C1325       C  0.34215054  0.78092157  0.73515585    -0.03500
C1326       C  0.36141125  0.78999506  0.72384343    -0.18600
H1327       H  0.44324132  0.88138356  0.68458733     0.10400
H1328       H  0.41187189  0.86194068  0.70427420     0.10500
H1329       H  0.42188802  0.80299890  0.66221842     0.10200
H1330       H  0.45332789  0.82228534  0.64244834     0.11300
H1331       H  0.39122779  0.82577006  0.71422136     0.11400
H1332       H  0.38277279  0.80013547  0.66957391     0.13300
H1333       H  0.34036154  0.79096613  0.66931638     0.09800
H1334       H  0.30646421  0.77566442  0.68910988     0.11900
H1335       H  0.34292504  0.77826579  0.75354681     0.08500
H1336       H  0.37668901  0.79370842  0.73374199     0.11300
C1337       C  0.49465622  0.92603140  0.63635026    -0.03300
C1338       C  0.51702520  0.93524279  0.63635326    -0.06000
C1339       C  0.52051715  0.95890508  0.63511977    -0.21000
C1340       C  0.50176589  0.97383196  0.63350384     0.24700
C1341       C  0.47941105  0.96454388  0.63350777    -0.18600
C1342       C  0.47594208  0.94102871  0.63474586    -0.08600
C1343       C  0.50570360  0.99897424  0.63328703    -0.18800
C1344       C  0.49058060  0.01358385  0.62368197    -0.23600
C1345       C  0.49100999  0.03875314  0.62637068     0.26700
C1346       C  0.47018362  0.05032853  0.62347849    -0.20400
C1347       C  0.46888930  0.07373519  0.62665699    -0.10100
C1348       C  0.48846529  0.08641643  0.63273598    -0.10600
C1349       C  0.50963048  0.07508657  0.63483023    -0.03500
C1350       C  0.51090406  0.05139145  0.63180845    -0.18600
H1351       H  0.53182531  0.92423339  0.63788655     0.10400
H1352       H  0.53790181  0.96557721  0.63549578     0.10500
H1353       H  0.46441677  0.97535739  0.63315206     0.10200
H1354       H  0.45846721  0.93464607  0.63438784     0.11300
H1355       H  0.52087285  0.00541269  0.64192865     0.11400
H1356       H  0.47590416  0.00668256  0.61455450     0.13300
H1357       H  0.45463998  0.04113716  0.61905314     0.09800
H1358       H  0.45244289  0.08192792  0.62408590     0.11900
H1359       H  0.52506421  0.08442866  0.63923592     0.08500
H1360       H  0.52739356  0.04313638  0.63362785     0.11300
C1361       C  0.48133988  0.15761709  0.35940300    -0.03300
C1362       C  0.46165435  0.14397145  0.35707573    -0.06000
C1363       C  0.44098472  0.15347174  0.34922170    -0.21000
C1364       C  0.43947081  0.17682632  0.34373526     0.24700
C1365       C  0.45904915  0.19058514  0.34681703    -0.18600
C1366       C  0.47961606  0.18110886  0.35468086    -0.08600
C1367       C  0.41780682  0.18567968  0.33329981    -0.18800
C1368       C  0.41271128  0.20798054  0.33047610    -0.23600
C1369       C  0.39186641  0.21601571  0.31795729     0.26700
C1370       C  0.38261435  0.23753447  0.32268427    -0.20400
C1371       C  0.36305658  0.24544034  0.31096568    -0.10100
C1372       C  0.35253467  0.23203220  0.29407933    -0.10600
C1373       C  0.36226146  0.21080090  0.28899639    -0.03500
C1374       C  0.38166370  0.20295150  0.30065744    -0.18600
H1375       H  0.46243539  0.12583599  0.36041134     0.10400
H1376       H  0.42623731  0.14240530  0.34691614     0.10500
H1377       H  0.45896749  0.20852321  0.34251581     0.10200
H1378       H  0.49435308  0.19222841  0.35670798     0.11300
H1379       H  0.40546713  0.17302305  0.32764217     0.11400
H1380       H  0.42373921  0.22089349  0.33783491     0.13300
H1381       H  0.39037609  0.24812707  0.33566646     0.09800
H1382       H  0.35609651  0.26191103  0.31524631     0.11900
H1383       H  0.35487234  0.20009270  0.27590783     0.08500
H1384       H  0.38879226  0.18675859  0.29574464     0.11300
C1385       C  0.56726057  0.15573263  0.35444686    -0.03300
C1386       C  0.57161045  0.17860248  0.36015739    -0.06000
C1387       C  0.59086085  0.19020030  0.35160374    -0.21000
C1388       C  0.60640911  0.17927847  0.33715319     0.24700
C1389       C  0.60183711  0.15668785  0.33076014    -0.18600
C1390       C  0.58257865  0.14504534  0.33931735    -0.08600
C1391       C  0.62685217  0.19208523  0.32859379    -0.18800
C1392       C  0.64660884  0.18172614  0.32290814    -0.23600
C1393       C  0.66733849  0.19357072  0.31362969     0.26700
C1394       C  0.68398929  0.18026985  0.30286335    -0.20400
C1395       C  0.70362284  0.19023934  0.29335948    -0.10100
C1396       C  0.70729891  0.21387710  0.29447461    -0.10600
C1397       C  0.69098343  0.22725813  0.30580723    -0.03500
C1398       C  0.67115530  0.21722356  0.31530333    -0.18600
H1399       H  0.55999308  0.18753508  0.37138609     0.10400
H1400       H  0.59375158  0.20770654  0.35650999     0.10500
H1401       H  0.61284267  0.14801698  0.31877917     0.10200
H1402       H  0.57987576  0.12790237  0.33353703     0.11300
H1403       H  0.62552507  0.21046342  0.32746411     0.11400
H1404       H  0.64767935  0.16334774  0.32470398     0.13300
H1405       H  0.68166259  0.16202516  0.30149170     0.09800
H1406       H  0.71588907  0.17932012  0.28496852     0.11900
H1407       H  0.69341410  0.24548054  0.30712925     0.08500
H1408       H  0.65910078  0.22805689  0.32401109     0.11300
C1409       C  0.49807859  0.14506671  0.58537580    -0.03300
C1410       C  0.49355302  0.16492013  0.57250021    -0.06000
C1411       C  0.49851803  0.16595945  0.54907507    -0.21000
C1412       C  0.50784496  0.14712343  0.53789146     0.24700
C1413       C  0.51301750  0.12744298  0.55088042    -0.18600
C1414       C  0.50817649  0.12645400  0.57439610    -0.08600
C1415       C  0.51219035  0.14888833  0.51280406    -0.18800
C1416       C  0.51239609  0.13082945  0.49875981    -0.23600
C1417       C  0.51554238  0.13294335  0.47347411     0.26700
C1418       C  0.50696678  0.11569621  0.45930999    -0.20400
C1419       C  0.50966169  0.11707411  0.43546696    -0.10100
C1420       C  0.52126481  0.13562844  0.42529417    -0.10600
C1421       C  0.53000762  0.15280429  0.43948115    -0.03500
C1422       C  0.52727630  0.15145975  0.46326841    -0.18600
H1423       H  0.48610501  0.17967323  0.58052928     0.10400
H1424       H  0.49465009  0.18142601  0.53955144     0.10500
H1425       H  0.52083985  0.11282300  0.54299572     0.10200
H1426       H  0.51171764  0.11085387  0.58379668     0.11300
H1427       H  0.51361052  0.16592052  0.50551106     0.11400
H1428       H  0.50874051  0.11398380  0.50574463     0.13300
H1429       H  0.49808885  0.10111895  0.46672109     0.09800
H1430       H  0.50313870  0.10333396  0.42507768     0.11900
H1431       H  0.53896091  0.16738241  0.43219599     0.08500
H1432       H  0.53476068  0.16477351  0.47355057     0.11300
C1433       C  0.67130243  0.77124744  0.28354975    -0.03300
C1434       C  0.67561080  0.78248412  0.30428874    -0.06000
C1435       C  0.65810326  0.79398222  0.31559722    -0.21000
C1436       C  0.63570574  0.79432200  0.30676252     0.24700
C1437       C  0.63107751  0.78265079  0.28630783    -0.18600
C1438       C  0.64874331  0.77125537  0.27478863    -0.08600
C1439       C  0.61824606  0.80836332  0.31860207    -0.18800
C1440       C  0.59545961  0.80425754  0.31803010    -0.23600
C1441       C  0.57861438  0.81883694  0.33015394     0.26700
C1442       C  0.55827689  0.80914518  0.33878911    -0.20400
C1443       C  0.54198892  0.82259081  0.34988679    -0.10100
C1444       C  0.54513946  0.84629989  0.35189225    -0.10600
C1445       C  0.56585930  0.85584491  0.34352102    -0.03500
C1446       C  0.58227267  0.84232805  0.33275189    -0.18600
H1447       H  0.69271810  0.78289768  0.31160520     0.10400
H1448       H  0.66215548  0.80288487  0.33125689     0.10500
H1449       H  0.61408531  0.78297270  0.27875546     0.10200
H1450       H  0.64484825  0.76290126  0.25879769     0.11300
H1451       H  0.62465571  0.82211249  0.32915759     0.11400
H1452       H  0.58902070  0.78922600  0.30943938     0.13300
H1453       H  0.55505822  0.79106715  0.33710346     0.09800
H1454       H  0.52658453  0.81448675  0.35656423     0.11900
H1455       H  0.56992106  0.87364073  0.34529310     0.08500
H1456       H  0.59764358  0.85046066  0.32606418     0.11300
C1457       C  0.46059213  0.86266643  0.35728371    -0.03300
C1458       C  0.45304089  0.86799807  0.33504995    -0.06000
C1459       C  0.43107020  0.86149039  0.32785032    -0.21000
C1460       C  0.41649328  0.84890960  0.34249018     0.24700
C1461       C  0.42384351  0.84416442  0.36506413    -0.18600
C1462       C  0.44571050  0.85113956  0.37242436    -0.08600
C1463       C  0.39392001  0.84101772  0.33344923    -0.18800
C1464       C  0.38345831  0.82155146  0.34038306    -0.23600
C1465       C  0.36205512  0.81259226  0.32952376     0.26700
C1466       C  0.35736338  0.78909244  0.33053142    -0.20400
C1467       C  0.33780024  0.78001205  0.31984088    -0.10100
C1468       C  0.32240874  0.79429684  0.30797590    -0.10600
C1469       C  0.32680509  0.81789122  0.30755425    -0.03500
C1470       C  0.34626635  0.82693564  0.31825384    -0.18600
H1471       H  0.46436457  0.87680107  0.32311912     0.10400
H1472       H  0.42575885  0.86557296  0.31048029     0.10500
H1473       H  0.41281929  0.83501081  0.37697846     0.10200
H1474       H  0.45136717  0.84676458  0.38961532     0.11300
H1475       H  0.38686357  0.85056242  0.31905794     0.11400
H1476       H  0.39175947  0.81088072  0.35324073     0.13300
H1477       H  0.36910300  0.77765546  0.33927797     0.09800
H1478       H  0.33490730  0.76179713  0.32060533     0.11900
H1479       H  0.31515056  0.82949046  0.29892166     0.08500
H1480       H  0.34871662  0.84519614  0.31777956     0.11300
C1481       C  0.49580327  0.86555873  0.58741483    -0.03300
C1482       C  0.49151532  0.84436521  0.57733960    -0.06000
C1483       C  0.49435129  0.84152217  0.55375159    -0.21000
C1484       C  0.50114499  0.85987337  0.53963923     0.24700
C1485       C  0.50626927  0.88090981  0.54988576    -0.18600
C1486       C  0.50367342  0.88367242  0.57356931    -0.08600
C1487       C  0.50281973  0.85632149  0.51443771    -0.18800
C1488       C  0.50020260  0.87328115  0.49885452    -0.23600
C1489       C  0.50110682  0.87044980  0.47344974     0.26700
C1490       C  0.49496590  0.88909611  0.45948470    -0.20400
C1491       C  0.49635873  0.88793103  0.43561061    -0.10100
C1492       C  0.50388548  0.86799897  0.42493979    -0.10600
C1493       C  0.50975442  0.84914982  0.43883188    -0.03500
C1494       C  0.50846382  0.85034142  0.46279265    -0.18600
H1495       H  0.48585051  0.82999163  0.58772514     0.10400
H1496       H  0.49068555  0.82504757  0.54641772     0.10500
H1497       H  0.51234919  0.89524943  0.53973922     0.10200
H1498       H  0.50717423  0.90015610  0.58094842     0.11300
H1499       H  0.50487190  0.83895199  0.50879942     0.11400
H1500       H  0.49644691  0.89024719  0.50493147     0.13300
H1501       H  0.48937705  0.90485934  0.46709701     0.09800
H1502       H  0.49225280  0.90301593  0.42562641     0.11900
H1503       H  0.51548684  0.83346363  0.43120986     0.08500
H1504       H  0.51367308  0.83558292  0.47268224     0.11300
C1505       C  0.51159841  0.92352703  0.37353823    -0.03300
C1506       C  0.53254823  0.93461527  0.37789534    -0.06000
C1507       C  0.53365387  0.95826298  0.37926272    -0.21000
C1508       C  0.51393469  0.97160446  0.37610060     0.24700
C1509       C  0.49274109  0.96054754  0.37216860    -0.18600
C1510       C  0.49159890  0.93665905  0.37106637    -0.08600
C1511       C  0.51678689  0.99679947  0.37724443    -0.18800
C1512       C  0.50176878  0.01236445  0.36907678    -0.23600
C1513       C  0.50709183  0.03726588  0.36888065     0.26700
C1514       C  0.48917814  0.05319139  0.36980025    -0.20400
C1515       C  0.49391724  0.07666659  0.36972503    -0.10100
C1516       C  0.51669711  0.08474001  0.36839732    -0.10600
C1517       C  0.53454132  0.06869350  0.36715496    -0.03500
C1518       C  0.52982162  0.04537939  0.36715238    -0.18600
H1519       H  0.54817271  0.92494610  0.38041673     0.10400
H1520       H  0.55016256  0.96620293  0.38254303     0.10500
H1521       H  0.47705069  0.97014341  0.37010795     0.10200
H1522       H  0.47521058  0.92849144  0.36782038     0.11300
H1523       H  0.53279587  0.00277962  0.38465845     0.11400
H1524       H  0.48528764  0.00697656  0.36229405     0.13300
H1525       H  0.47148290  0.04744691  0.37081519     0.09800
H1526       H  0.47970042  0.08841866  0.37046445     0.11900
H1527       H  0.55235902  0.07400716  0.36655820     0.08500
H1528       H  0.54412170  0.03381052  0.36553536     0.11300
C1529       C  0.66251847  0.52451572  0.14268048    -0.03300
C1530       C  0.68605300  0.52817838  0.14662860    -0.06000
C1531       C  0.69392203  0.54898849  0.15496736    -0.21000
C1532       C  0.67846531  0.56654210  0.15987418     0.24700
C1533       C  0.65492301  0.56314703  0.15518602    -0.18600
C1534       C  0.64706881  0.54232330  0.14660274    -0.08600
C1535       C  0.68781837  0.58798280  0.16966938    -0.18800
C1536       C  0.67523692  0.60308708  0.18149000    -0.23600
C1537       C  0.68522027  0.62401500  0.19177382     0.26700
C1538       C  0.67096524  0.64287567  0.19531557    -0.20400
C1539       C  0.67978494  0.66295560  0.20468033    -0.10100
C1540       C  0.70303617  0.66448271  0.21107589    -0.10600
C1541       C  0.71715309  0.64534367  0.20812626    -0.03500
C1542       C  0.70838042  0.62536065  0.19863067    -0.18600
H1543       H  0.69838700  0.51483693  0.14343335     0.10400
H1544       H  0.71215490  0.55119670  0.15808541     0.10500
H1545       H  0.64249511  0.57643195  0.15803228     0.10200
H1546       H  0.62882772  0.53990231  0.14374332     0.11300
H1547       H  0.70610132  0.59103733  0.16746395     0.11400
H1548       H  0.65690483  0.60037879  0.18359289     0.13300
H1549       H  0.65300016  0.64219963  0.19045976     0.09800
H1550       H  0.66841763  0.67731990  0.20678125     0.11900
H1551       H  0.73512506  0.64583763  0.21296079     0.08500
H1552       H  0.71975985  0.61096616  0.19700238     0.11300
C1553       C  0.74111108  0.31842104  0.22255651    -0.03300
C1554       C  0.75136285  0.32921481  0.20349417    -0.06000
C1555       C  0.74045043  0.34720408  0.19221998    -0.21000
C1556       C  0.71894238  0.35493783  0.19956860     0.24700
C1557       C  0.70883537  0.34454913  0.21908636    -0.18600
C1558       C  0.71994519  0.32654150  0.23056167    -0.08600
C1559       C  0.70769471  0.37315734  0.18559965    -0.18800
C1560       C  0.68872204  0.38463466  0.19173665    -0.23600
C1561       C  0.67863383  0.40306445  0.17718539     0.26700
C1562       C  0.66602164  0.42028277  0.18770325    -0.20400
C1563       C  0.65701667  0.43830753  0.17473371    -0.10100
C1564       C  0.65999239  0.43949291  0.15075444    -0.10600
C1565       C  0.67211518  0.42178012  0.14015155    -0.03500
C1566       C  0.68123100  0.40379349  0.15318446    -0.18600
H1567       H  0.76776163  0.32348641  0.19699540     0.10400
H1568       H  0.74873969  0.35485982  0.17736256     0.10500
H1569       H  0.69216420  0.34969807  0.22524144     0.10200
H1570       H  0.71157544  0.31840552  0.24510486     0.11300
H1571       H  0.71610815  0.37781133  0.16959903     0.11400
H1572       H  0.68101695  0.38156296  0.20841095     0.13300
H1573       H  0.66354569  0.42006796  0.20611315     0.09800
H1574       H  0.64783474  0.45161430  0.18352032     0.11900
H1575       H  0.67505836  0.42160538  0.12192328     0.08500
H1576       H  0.69015886  0.39042380  0.14429664     0.11300
C1577       C  0.64695222  0.44304601  0.83952558    -0.03300
C1578       C  0.63800416  0.42282581  0.84932405    -0.06000
C1579       C  0.64401455  0.40149602  0.84087650    -0.21000
C1580       C  0.65872683  0.39957116  0.82195667     0.24700
C1581       C  0.66697717  0.41968511  0.81139260    -0.18600
C1582       C  0.66116650  0.44110968  0.82002897    -0.08600
C1583       C  0.66626300  0.37634988  0.81507363    -0.18800
C1584       C  0.67606720  0.37132882  0.79477391    -0.23600
C1585       C  0.68517908  0.34827317  0.78929152     0.26700
C1586       C  0.68766623  0.34197885  0.76625345    -0.20400
C1587       C  0.69722477  0.32091090  0.76052223    -0.10100
C1588       C  0.70485327  0.30573899  0.77773663    -0.10600
C1589       C  0.70239036  0.31207284  0.80078420    -0.03500
C1590       C  0.69271451  0.33302012  0.80650086    -0.18600
H1591       H  0.62671657  0.42353617  0.86406195     0.10400
H1592       H  0.63733609  0.38637095  0.84940830     0.10500
H1593       H  0.67854786  0.41905494  0.79691900     0.10200
H1594       H  0.66811737  0.45586075  0.81127754     0.11300
H1595       H  0.66333393  0.36269674  0.82745232     0.11400
H1596       H  0.67720778  0.38433585  0.78145213     0.13300
H1597       H  0.68227858  0.35345790  0.75262004     0.09800
H1598       H  0.69902213  0.31669679  0.74259422     0.11900
H1599       H  0.70820768  0.30092058  0.81450543     0.08500
H1600       H  0.69186070  0.33741887  0.82442557     0.11300
C1601       C  0.63806175  0.48509309  0.91329040    -0.03300
C1602       C  0.62975209  0.46577749  0.92510930    -0.06000
C1603       C  0.62814027  0.46548071  0.94895964    -0.21000
C1604       C  0.63499387  0.48435983  0.96182612     0.24700
C1605       C  0.64299590  0.50398241  0.95001839    -0.18600
C1606       C  0.64431546  0.50436693  0.92590856    -0.08600
C1607       C  0.63325464  0.48233046  0.98732827    -0.18800
C1608       C  0.64357014  0.49621304  0.00250903    -0.23600
C1609       C  0.64291881  0.49192165  0.02783651     0.26700
C1610       C  0.64635411  0.51014040  0.04286239    -0.20400
C1611       C  0.64653573  0.50654327  0.06669247    -0.10100
C1612       C  0.64361946  0.48455158  0.07605184    -0.10600
C1613       C  0.64028717  0.46630513  0.06102785    -0.03500
C1614       C  0.64003666  0.46989026  0.03727335    -0.18600
H1615       H  0.62421853  0.45086076  0.91583502     0.10400
H1616       H  0.62168328  0.45022480  0.95742964     0.10500
H1617       H  0.64803319  0.51908783  0.95917139     0.10200
H1618       H  0.65053576  0.51954850  0.91715180     0.11300
H1619       H  0.62333964  0.46796982  0.99385874     0.11400
H1620       H  0.65295057  0.51109789  0.99644717     0.13300
H1621       H  0.64891826  0.52723287  0.03613164     0.09800
H1622       H  0.64946414  0.52093117  0.07774892     0.11900
H1623       H  0.63774659  0.44916738  0.06761221     0.08500
H1624       H  0.63811511  0.45520121  0.02644809     0.11300
C1625       C  0.36170836  0.47716509  0.17092903    -0.03300
C1626       C  0.33982162  0.47492117  0.18107825    -0.06000
C1627       C  0.33218590  0.45396073  0.18984984    -0.21000
C1628       C  0.34592527  0.43450109  0.18835221     0.24700
C1629       C  0.36753350  0.43643467  0.17765229    -0.18600
C1630       C  0.37529779  0.45750839  0.16904778    -0.08600
C1631       C  0.33759696  0.41291136  0.19922046    -0.18800
C1632       C  0.34409815  0.39204908  0.19251237    -0.23600
C1633       C  0.33491281  0.37077832  0.20328441     0.26700
C1634       C  0.33173172  0.35152341  0.18966976    -0.20400
C1635       C  0.32239798  0.33149221  0.19903731    -0.10100
C1636       C  0.31652631  0.33004825  0.22241955    -0.10600
C1637       C  0.32060791  0.34901986  0.23630995    -0.03500
C1638       C  0.32956574  0.36925229  0.22681061    -0.18600
H1639       H  0.32841895  0.48933802  0.18230617     0.10400
H1640       H  0.31541745  0.45295575  0.19788725     0.10500
H1641       H  0.37882830  0.42190985  0.17657827     0.10200
H1642       H  0.39223601  0.45834659  0.16155642     0.11300
H1643       H  0.32469589  0.41428775  0.21258823     0.11400
H1644       H  0.35518019  0.39038542  0.17766072     0.13300
H1645       H  0.33596128  0.35215814  0.17158442     0.09800
H1646       H  0.31968195  0.31710788  0.18790561     0.11900
H1647       H  0.31634823  0.34840601  0.25437957     0.08500
H1648       H  0.33241822  0.38362039  0.23790993     0.11300
C1649       C  0.28902507  0.69080427  0.23586468    -0.03300
C1650       C  0.28281708  0.68334412  0.21387977    -0.06000
C1651       C  0.29237663  0.66374709  0.20473360    -0.21000
C1652       C  0.30866310  0.65104555  0.21706019     0.24700
C1653       C  0.31484613  0.65820802  0.23922711    -0.18600
C1654       C  0.30503559  0.67789581  0.24855931    -0.08600
C1655       C  0.31820164  0.63048175  0.20584918    -0.18800
C1656       C  0.33811407  0.62018653  0.21154423    -0.23600
C1657       C  0.34745463  0.60075688  0.19823085     0.26700
C1658       C  0.36146670  0.58459926  0.20919106    -0.20400
C1659       C  0.36992445  0.56591028  0.19716270    -0.10100
C1660       C  0.36499410  0.56303081  0.17367632    -0.10600
C1661       C  0.35145072  0.57971584  0.16262560    -0.03500
C1662       C  0.34294550  0.59830743  0.17468000    -0.18600
H1663       H  0.27043483  0.69265070  0.20359173     0.10400
H1664       H  0.28715782  0.65862647  0.18771449     0.10500
H1665       H  0.32696313  0.64860245  0.24949925     0.10200
H1666       H  0.31006183  0.68306743  0.26560155     0.11300
H1667       H  0.30846231  0.62399655  0.19143813     0.11400
H1668       H  0.34784507  0.62589996  0.22627674     0.13300
H1669       H  0.36548443  0.58617184  0.22724031     0.09800
H1670       H  0.38020785  0.55344118  0.20631268     0.11900
H1671       H  0.34681345  0.57860967  0.14480059     0.08500
H1672       H  0.33295486  0.61083599  0.16533547     0.11300
C1673       C  0.43248237  0.51277011  0.15421201    -0.03300
C1674       C  0.43988068  0.49029737  0.15771286    -0.06000
C1675       C  0.46327385  0.48496196  0.15671206    -0.21000
C1676       C  0.47968262  0.50189683  0.15170108     0.24700
C1677       C  0.47228533  0.52444796  0.14829589    -0.18600
C1678       C  0.44893630  0.52980739  0.14957399    -0.08600
C1679       C  0.50438798  0.49567859  0.15093841    -0.18800
C1680       C  0.51986258  0.50690358  0.13779084    -0.23600
C1681       C  0.54456797  0.50071580  0.13690971     0.26700
C1682       C  0.55716776  0.50568474  0.11693400    -0.20400
C1683       C  0.58050231  0.50024398  0.11554730    -0.10100
C1684       C  0.59175618  0.48989127  0.13421903    -0.10600
C1685       C  0.57926621  0.48531695  0.15439684    -0.03500
C1686       C  0.55592891  0.49070827  0.15576616    -0.18600
H1687       H  0.42765466  0.47690526  0.16160899     0.10400
H1688       H  0.46856203  0.46751297  0.15966831     0.10500
H1689       H  0.48449387  0.53805541  0.14501730     0.10200
H1690       H  0.44372193  0.54727222  0.14663725     0.11300
H1691       H  0.50968159  0.48068521  0.16061729     0.11400
H1692       H  0.51408026  0.52040858  0.12631790     0.04500
H1693       H  0.54883877  0.51351728  0.10223067     0.09800
H1694       H  0.58958675  0.50371392  0.09967861     0.11900
H1695       H  0.58760833  0.47780259  0.16924638     0.08500
H1696       H  0.54696805  0.48737721  0.17172004     0.11300
C1697       C  0.28655637  0.67496156  0.79950632    -0.03300
C1698       C  0.27374064  0.65460570  0.79951647    -0.06000
C1699       C  0.28219121  0.63488806  0.81013228    -0.21000
C1700       C  0.30372583  0.63478006  0.82105562     0.24700
C1701       C  0.31672894  0.65512565  0.82092790    -0.18600
C1702       C  0.30821255  0.67495139  0.81027124    -0.08600
C1703       C  0.31140165  0.61306069  0.83232467    -0.18800
C1704       C  0.33172775  0.60981837  0.84311881    -0.23600
C1705       C  0.33866592  0.58757717  0.85375977     0.26700
C1706       C  0.36214637  0.58310684  0.85734259    -0.20400
C1707       C  0.36939745  0.56207841  0.86636228    -0.10100
C1708       C  0.35328655  0.54504379  0.87197939    -0.10600
C1709       C  0.32977380  0.54983904  0.86937800    -0.03500
C1710       C  0.32251908  0.57085704  0.86054049    -0.18600
H1711       H  0.25695977  0.65390565  0.79150170     0.10400
H1712       H  0.27169553  0.61960653  0.80989297     0.10500
H1713       H  0.33335930  0.65606572  0.82909265     0.10200
H1714       H  0.31853414  0.69033112  0.81062474     0.11300
H1715       H  0.29960323  0.59878308  0.83108961     0.11400
H1716       H  0.34430950  0.62345144  0.84348748     0.13300
H1717       H  0.37498072  0.59572197  0.85258635     0.09800
H1718       H  0.38763149  0.55883641  0.86807746     0.11900
H1719       H  0.31692752  0.53722172  0.87408291     0.08500
H1720       H  0.30424675  0.57383560  0.85916153     0.11300
C1721       C  0.28129991  0.34028731  0.78259406    -0.03300
C1722       C  0.27165297  0.36188355  0.77851993    -0.06000
C1723       C  0.28124308  0.38133477  0.78849742    -0.21000
C1724       C  0.30041569  0.37961744  0.80306204     0.24700
C1725       C  0.31027370  0.35807477  0.80685008    -0.18600
C1726       C  0.30082604  0.33868863  0.79675690    -0.08600
C1727       C  0.31008269  0.40058197  0.81358283    -0.18800
C1728       C  0.32135259  0.40036998  0.83381195    -0.23600
C1729       C  0.33092473  0.42109011  0.84483413     0.26700
C1730       C  0.33412630  0.42094059  0.86867495    -0.20400
C1731       C  0.34357433  0.43978592  0.87977690    -0.10100
C1732       C  0.35032630  0.45936963  0.86723130    -0.10600
C1733       C  0.34765894  0.45914211  0.84318850    -0.03500
C1734       C  0.33794847  0.44038522  0.83214071    -0.18600
H1735       H  0.25665148  0.36376319  0.76767194     0.10400
H1736       H  0.27344860  0.39774565  0.78510095     0.10500
H1737       H  0.32548520  0.35612501  0.81735918     0.10200
H1738       H  0.30877154  0.32237215  0.80022815     0.11300
H1739       H  0.30670453  0.41672272  0.80499035     0.11400
H1740       H  0.32267762  0.38447808  0.84341600     0.13300
H1741       H  0.32929405  0.40609904  0.87881795     0.09800
H1742       H  0.34595837  0.43840237  0.89806132     0.11900
H1743       H  0.35325967  0.47358619  0.83286562     0.08500
H1744       H  0.33653920  0.44085741  0.81364526     0.11300
C1745       C  0.58389973  0.49660447  0.86354527    -0.03300
C1746       C  0.57648167  0.50661176  0.88400066    -0.06000
C1747       C  0.55312663  0.51083700  0.88775430    -0.21000
C1748       C  0.53660506  0.50534575  0.87113496     0.24700
C1749       C  0.54406515  0.49558463  0.85050150    -0.18600
C1750       C  0.56741697  0.49137098  0.84675002    -0.08600
C1751       C  0.51177071  0.50844132  0.87665673    -0.18800
C1752       C  0.49511355  0.50991327  0.86061427    -0.23600
C1753       C  0.47000723  0.51006325  0.86580591     0.26700
C1754       C  0.45478515  0.50327656  0.84850007    -0.20400
C1755       C  0.43124547  0.50135076  0.85277421    -0.10100
C1756       C  0.42221252  0.50638836  0.87445454    -0.10600
C1757       C  0.43715409  0.51443697  0.89148083    -0.03500
C1758       C  0.46087552  0.51620213  0.88725494    -0.18600
H1759       H  0.58856138  0.51039324  0.89755899     0.10400
H1760       H  0.54789414  0.51809132  0.90390702     0.10500
H1761       H  0.53196475  0.49040906  0.83747738     0.10200
H1762       H  0.57251047  0.48372914  0.83075635     0.11300
H1763       H  0.50720605  0.50890509  0.89466734     0.11400
H1764       H  0.49986410  0.50970703  0.84263813     0.13300
H1765       H  0.46121255  0.49874790  0.83174066     0.09800
H1766       H  0.42009959  0.49555630  0.83914092     0.11900
H1767       H  0.43063675  0.51851274  0.90831773     0.08500
H1768       H  0.47188821  0.52220907  0.90085339     0.11300
C1769       C  0.37345527  0.50494078  0.93829902    -0.03300
C1770       C  0.36947568  0.52687637  0.94666963    -0.06000
C1771       C  0.36860408  0.53070840  0.97036436    -0.21000
C1772       C  0.37209762  0.51281000  0.98623062     0.24700
C1773       C  0.37635998  0.49088657  0.97775254    -0.18600
C1774       C  0.37704689  0.48705099  0.95412270    -0.08600
C1775       C  0.37028170  0.51742878  0.01133958    -0.18800
C1776       C  0.37990546  0.50411113  0.02775045    -0.23600
C1777       C  0.37857952  0.50860963  0.05285774     0.26700
C1778       C  0.39552828  0.49930373  0.06728040    -0.20400
C1779       C  0.39506034  0.50286040  0.09095051    -0.10100
C1780       C  0.37735035  0.51553028  0.10098013    -0.10600
C1781       C  0.36008551  0.52453886  0.08659000    -0.03500
C1782       C  0.36068332  0.52114998  0.06281642    -0.18600
H1783       H  0.36629941  0.54092664  0.93491204     0.10400
H1784       H  0.36506993  0.54772281  0.97633012     0.10500
H1785       H  0.37854369  0.47645093  0.98921080     0.10200
H1786       H  0.38022082  0.46995494  0.94820136     0.11300
H1787       H  0.36153896  0.53288186  0.01630753     0.11400
H1788       H  0.39039814  0.48982173  0.02266979     0.13300
H1789       H  0.40946776  0.48949692  0.06014091     0.09800
H1790       H  0.40897146  0.49607812  0.10123588     0.11900
H1791       H  0.34593075  0.53402963  0.09369898     0.08500
H1792       H  0.34690218  0.52801886  0.05241408     0.11300
C1793       C  0.15523718  0.65044819  0.55477579    -0.03300
C1794       C  0.15624558  0.67428686  0.55671566    -0.06000
C1795       C  0.16563574  0.68443717  0.57610861    -0.21000
C1796       C  0.17416850  0.67111245  0.59429392     0.24700
C1797       C  0.17286943  0.64726527  0.59267923    -0.18600
C1798       C  0.16360944  0.63708481  0.57319478    -0.08600
C1799       C  0.18358365  0.68294759  0.61468344    -0.18800
C1800       C  0.19556720  0.67268768  0.63166656    -0.23600
C1801       C  0.20457847  0.68499495  0.65190267     0.26700
C1802       C  0.20935214  0.67256636  0.67204727    -0.20400
C1803       C  0.21766183  0.68350752  0.69153638    -0.10100
C1804       C  0.22161144  0.70713087  0.69118616    -0.10600
C1805       C  0.21733493  0.71949411  0.67086861    -0.03500
C1806       C  0.20898517  0.70857694  0.65142639    -0.18600
H1807       H  0.14985754  0.68513262  0.54299346     0.10400
H1808       H  0.16624585  0.70284719  0.57686962     0.10500
H1809       H  0.17859135  0.63619764  0.60643123     0.10200
H1810       H  0.16305304  0.61877561  0.57314177     0.11300
H1811       H  0.18023681  0.70105174  0.61563352     0.11400
H1812       H  0.19865811  0.65453829  0.63127302     0.13300
H1813       H  0.20636655  0.65435462  0.67280043     0.09800
H1814       H  0.22090428  0.67346803  0.70689000     0.11900
H1815       H  0.22030727  0.73769669  0.66999162     0.08500
H1816       H  0.20639145  0.71870519  0.63605173     0.11300
C1817       C  0.21728203  0.72349440  0.33704351    -0.03300
C1818       C  0.19666054  0.73129118  0.34665837    -0.06000
C1819       C  0.18642133  0.71968926  0.36502649    -0.21000
C1820       C  0.19643445  0.69996464  0.37432742     0.24700
C1821       C  0.21717834  0.69211119  0.36479683    -0.18600
C1822       C  0.22755736  0.70387821  0.34642341    -0.08600
C1823       C  0.18425386  0.68815252  0.39356906    -0.18800
C1824       C  0.19401634  0.67275605  0.40777850    -0.23600
C1825       C  0.18194828  0.66310107  0.42820069     0.26700
C1826       C  0.19510996  0.65651674  0.44726400    -0.20400
C1827       C  0.18447010  0.64903228  0.46744944    -0.10100
C1828       C  0.16036975  0.64771187  0.46897630    -0.10600
C1829       C  0.14716507  0.65300833  0.44951843    -0.03500
C1830       C  0.15783616  0.66069467  0.42928917    -0.18600
H1831       H  0.18831573  0.74640160  0.33992058     0.10400
H1832       H  0.17050313  0.72616934  0.37197136     0.10500
H1833       H  0.22524789  0.67670317  0.37103825     0.10200
H1834       H  0.24329839  0.69731104  0.33919691     0.11300
H1835       H  0.16679347  0.69357586  0.39702486     0.11400
H1836       H  0.21203875  0.66859070  0.40579411     0.13300
H1837       H  0.21368916  0.65782820  0.44678485     0.09800
H1838       H  0.19514619  0.64448480  0.48200090     0.11900
H1839       H  0.12859429  0.65197092  0.45017699     0.08500
H1840       H  0.14716265  0.66483624  0.41464156     0.11300
C1841       C  0.85056879  0.63903730  0.44257188    -0.03300
C1842       C  0.85526970  0.66182102  0.43632059    -0.06000
C1843       C  0.84458996  0.67200021  0.41739147    -0.21000
C1844       C  0.82843136  0.65996034  0.40439232     0.24700
C1845       C  0.82309326  0.63739431  0.41091050    -0.18600
C1846       C  0.83399455  0.62709067  0.42973568    -0.08600
C1847       C  0.81684770  0.67206500  0.38502991    -0.18800
C1848       C  0.80461996  0.66166931  0.36851886    -0.23600
C1849       C  0.79357105  0.67424463  0.34919944     0.26700
C1850       C  0.78969458  0.66286966  0.32854248    -0.20400
C1851       C  0.77988695  0.67422064  0.30976768    -0.10100
C1852       C  0.77342022  0.69717463  0.31134101    -0.10600
C1853       C  0.77660402  0.70838140  0.33227076    -0.03500
C1854       C  0.78654414  0.69705401  0.35101304    -0.18600
H1855       H  0.86715775  0.67192909  0.44627540     0.10400
H1856       H  0.84878698  0.68952293  0.41307112     0.10500
H1857       H  0.81003114  0.62774709  0.40206813     0.10200
H1858       H  0.82855169  0.61010754  0.43452141     0.11300
H1859       H  0.81931292  0.69037293  0.38394746     0.11400
H1860       H  0.80367216  0.64324406  0.36819772     0.13300
H1861       H  0.79466858  0.64523044  0.32678148     0.09800
H1862       H  0.77752122  0.66503010  0.29395681     0.11900
H1863       H  0.77166255  0.72601375  0.33411297     0.08500
H1864       H  0.78847469  0.70617809  0.36689472     0.11300
C1865       C  0.08561723  0.64037256  0.50399915    -0.03300
C1866       C  0.07738761  0.64077365  0.48137060    -0.06000
C1867       C  0.05371094  0.64017464  0.47691392    -0.21000
C1868       C  0.03762561  0.63913583  0.49491922     0.24700
C1869       C  0.04591264  0.63897614  0.51760480    -0.18600
C1870       C  0.06953336  0.63962121  0.52203276    -0.08600
C1871       C  0.01265229  0.63696954  0.48914600    -0.18800
C1872       C  0.99527235  0.63909799  0.50438991    -0.23600
C1873       C  0.97031689  0.63581926  0.49896172     0.26700
C1874       C  0.95433234  0.63620357  0.51707240    -0.20400
C1875       C  0.93076228  0.63320496  0.51302580    -0.10100
C1876       C  0.92253670  0.62986478  0.49069692    -0.10600
C1877       C  0.93847115  0.62934910  0.47257264    -0.03500
C1878       C  0.96199002  0.63234498  0.47658127    -0.18600
H1879       H  0.08919924  0.64149837  0.46705844     0.10400
H1880       H  0.04794136  0.64026489  0.45925131     0.10500
H1881       H  0.03446787  0.63757467  0.53212347     0.10200
H1882       H  0.07513705  0.63861837  0.53970716     0.11300
H1883       H  0.00879056  0.63319539  0.47144905     0.11400
H1884       H  0.99924313  0.64333664  0.52196866     0.13300
H1885       H  0.96009834  0.63887425  0.53449915     0.09800
H1886       H  0.91897062  0.63395039  0.52734570     0.11900
H1887       H  0.93281989  0.62638545  0.45517576     0.08500
H1888       H  0.97329140  0.63198608  0.46193328     0.11300
C1889       C  0.16127257  0.35703648  0.44678801    -0.03300
C1890       C  0.18465036  0.36337021  0.44535141    -0.06000
C1891       C  0.19813496  0.35705907  0.42673932    -0.21000
C1892       C  0.18868934  0.34410338  0.40910737     0.24700
C1893       C  0.16515227  0.33851017  0.40985720    -0.18600
C1894       C  0.15158943  0.34485227  0.42849054    -0.08600
C1895       C  0.20381566  0.33656960  0.39024498    -0.18800
C1896       C  0.20075199  0.31636575  0.38008460    -0.23600
C1897       C  0.21518391  0.30751458  0.36119737     0.26700
C1898       C  0.20688383  0.28855615  0.34941128    -0.20400
C1899       C  0.21903762  0.27972227  0.33104883    -0.10100
C1900       C  0.24000956  0.28952082  0.32395733    -0.10600
C1901       C  0.24888211  0.30803500  0.33619866    -0.03500
C1902       C  0.23657259  0.31701180  0.35467132    -0.18600
H1903       H  0.19258813  0.37305957  0.45893757     0.10400
H1904       H  0.21614539  0.36183474  0.42639547     0.10500
H1905       H  0.15713085  0.32931288  0.39599513     0.10200
H1906       H  0.13368313  0.34009068  0.42819163     0.11300
H1907       H  0.21817854  0.34748178  0.38556820     0.11400
H1908       H  0.18659236  0.30558182  0.38579115     0.13300
H1909       H  0.19065332  0.28070176  0.35418126     0.09800
H1910       H  0.21178695  0.26523553  0.32224952     0.11900
H1911       H  0.26507986  0.31581419  0.33125522     0.08500
H1912       H  0.24395298  0.33126003  0.36365038     0.11300
C1913       C  0.15844599  0.35636455  0.53278309    -0.03300
C1914       C  0.18225466  0.35371469  0.53583549    -0.06000
C1915       C  0.19110077  0.34562801  0.55658218    -0.21000
C1916       C  0.17648108  0.34023436  0.57496788     0.24700
C1917       C  0.15263612  0.34356444  0.57227809    -0.18600
C1918       C  0.14372695  0.35165224  0.55134927    -0.08600
C1919       C  0.18691466  0.33005452  0.59597115    -0.18800
C1920       C  0.17707240  0.33004930  0.61684290    -0.23600
C1921       C  0.18860956  0.32017109  0.63741690     0.26700
C1922       C  0.18406922  0.32939139  0.65899045    -0.20400
C1923       C  0.19482441  0.32067937  0.67865181    -0.10100
C1924       C  0.21007739  0.30223297  0.67722210    -0.10600
C1925       C  0.21431670  0.29271771  0.65565934    -0.03500
C1926       C  0.20372647  0.30158653  0.63596300    -0.18600
H1927       H  0.19412949  0.35767551  0.52204805     0.10400
H1928       H  0.20950806  0.34334896  0.55818557     0.10500
H1929       H  0.14075455  0.33918712  0.58590761     0.10200
H1930       H  0.12529620  0.35331304  0.54941369     0.11300
H1931       H  0.20411596  0.32317375  0.59425788     0.11400
H1932       H  0.16086808  0.33875722  0.61931936     0.13300
H1933       H  0.17233540  0.34354550  0.66060587     0.09800
H1934       H  0.19093612  0.32822529  0.69503540     0.11900
H1935       H  0.22576904  0.27835280  0.65399999     0.08500
H1936       H  0.20709449  0.29357133  0.61971375     0.11300
C1937       C  0.13423688  0.42189214  0.49454180    -0.03300
C1938       C  0.13725007  0.43014206  0.51679655    -0.06000
C1939       C  0.13680896  0.45358191  0.52078471    -0.21000
C1940       C  0.13307331  0.46915740  0.50267512     0.24700
C1941       C  0.12952483  0.46074865  0.48047246    -0.18600
C1942       C  0.12999147  0.43739928  0.47651880    -0.08600
C1943       C  0.13461853  0.49394305  0.50730502    -0.18800
C1944       C  0.12649996  0.51024970  0.49301027    -0.23600
C1945       C  0.12968411  0.53494007  0.49717877     0.26700
C1946       C  0.11413037  0.55051078  0.48746286    -0.20400
C1947       C  0.11651874  0.57386512  0.49131773    -0.10100
C1948       C  0.13474552  0.58212373  0.50471892    -0.10600
C1949       C  0.15086313  0.56656615  0.51359686    -0.03500
C1950       C  0.14836491  0.54327072  0.50991413    -0.18600
H1951       H  0.14079315  0.41856968  0.53094517     0.10400
H1952       H  0.13979305  0.45959710  0.53801735     0.10500
H1953       H  0.12715986  0.47202421  0.46589056     0.10200
H1954       H  0.12733018  0.43148525  0.45920547     0.11300
H1955       H  0.14260943  0.49885222  0.52333314     0.11400
H1956       H  0.11650708  0.50557563  0.47808057     0.13300
H1957       H  0.09980086  0.54453990  0.47726552     0.09800
H1958       H  0.10369329  0.58529947  0.48434302     0.11900
H1959       H  0.16557915  0.57236028  0.52330988     0.08500
H1960       H  0.16132534  0.53192998  0.51677463     0.11300
C1961       C  0.85298008  0.33811002  0.55740506    -0.03300
C1962       C  0.82938549  0.34214435  0.56077453    -0.06000
C1963       C  0.81746521  0.33186298  0.57892502    -0.21000
C1964       C  0.82871397  0.31723875  0.59436276     0.24700
C1965       C  0.85224276  0.31284973  0.59099654    -0.18600
C1966       C  0.86422270  0.32315822  0.57278564    -0.08600
C1967       C  0.81498749  0.30642294  0.61311462    -0.18800
C1968       C  0.82421368  0.29724257  0.63226168    -0.23600
C1969       C  0.81034713  0.28638159  0.65084202     0.26700
C1970       C  0.82101650  0.27027722  0.66515797    -0.20400
C1971       C  0.80894315  0.25989535  0.68314429    -0.10100
C1972       C  0.78585610  0.26550507  0.68744202    -0.10600
C1973       C  0.77511610  0.28170990  0.67317538    -0.03500
C1974       C  0.78724619  0.29211994  0.65509196    -0.18600
H1975       H  0.82005478  0.35321155  0.54908966     0.10400
H1976       H  0.79930995  0.33537084  0.58089701     0.10500
H1977       H  0.86144448  0.30102023  0.60192757     0.10200
H1978       H  0.88204630  0.31870683  0.57075797     0.11300
H1979       H  0.79645807  0.30628586  0.61098980     0.11400
H1980       H  0.84271967  0.29718609  0.63447330     0.13300
H1981       H  0.83879689  0.26564171  0.66237660     0.09800
H1982       H  0.81782798  0.24752048  0.69378762     0.11900
H1983       H  0.75747209  0.28662841  0.67621201     0.08500
H1984       H  0.77860881  0.30499716  0.64491492     0.11300
C1985       C  0.80827392  0.28522829  0.32873355    -0.03300
C1986       C  0.83070774  0.28079707  0.33655658    -0.06000
C1987       C  0.83911336  0.29088832  0.35641405    -0.21000
C1988       C  0.82542533  0.30568915  0.36916689     0.24700
C1989       C  0.80295921  0.31036967  0.36131419    -0.18600
C1990       C  0.79448020  0.30016969  0.34133946    -0.08600
C1991       C  0.83562731  0.31566336  0.39030869    -0.18800
C1992       C  0.82364571  0.32644658  0.40665882    -0.23600
C1993       C  0.83413198  0.33410810  0.42861150     0.26700
C1994       C  0.81988776  0.33613314  0.44785696    -0.20400
C1995       C  0.82907594  0.34186995  0.46915641    -0.10100
C1996       C  0.85277534  0.34596273  0.47173291    -0.10600
C1997       C  0.86694733  0.34506687  0.45230426    -0.03500
C1998       C  0.85775260  0.33916678  0.43093280    -0.18600
H1999       H  0.84189651  0.26941166  0.32735511     0.10400
H2000       H  0.85645944  0.28696049  0.36190829     0.10500
H2001       H  0.79189315  0.32200033  0.37025735     0.10200
H2002       H  0.77718049  0.30407012  0.33571961     0.11300
H2003       H  0.85380460  0.31263480  0.39311163     0.11400
H2004       H  0.80517563  0.32813804  0.40497123     0.13300
H2005       H  0.80161501  0.33273470  0.44654215     0.09800
H2006       H  0.81756713  0.34306293  0.48367218     0.11900
H2007       H  0.88522492  0.34832320  0.45373774     0.08500
H2008       H  0.86920654  0.33861996  0.41635637     0.11300
C2009       C  0.86939216  0.41023517  0.51187334    -0.03300
C2010       C  0.86595374  0.41871639  0.48956014    -0.06000
C2011       C  0.86530299  0.44216307  0.48530505    -0.21000
C2012       C  0.86828683  0.45770810  0.50318090     0.24700
C2013       C  0.87150031  0.44917517  0.52563642    -0.18600
C2014       C  0.87205310  0.42568870  0.52988856    -0.08600
C2015       C  0.86749661  0.48248139  0.49746737    -0.18800
C2016       C  0.87465353  0.49917462  0.51148838    -0.23600
C2017       C  0.87385748  0.52371791  0.50494389     0.26700
C2018       C  0.87245650  0.54003188  0.52224215    -0.20400
C2019       C  0.87143446  0.56325356  0.51671530    -0.10100
C2020       C  0.87194135  0.57072638  0.49374968    -0.10600
C2021       C  0.87408475  0.55438277  0.47646422    -0.03500
C2022       C  0.87507047  0.53119028  0.48196463    -0.18600
H2023       H  0.86342819  0.40723398  0.47539547     0.10400
H2024       H  0.86256055  0.44818817  0.46788970     0.10500
H2025       H  0.87335011  0.46037386  0.54006873     0.10200
H2026       H  0.87486898  0.41962791  0.54726823     0.11300
H2027       H  0.86078070  0.48705008  0.48067966     0.11400
H2028       H  0.88094979  0.49506198  0.52851858     0.13300
H2029       H  0.87178364  0.53476865  0.54009999     0.09800
H2030       H  0.86980873  0.57521095  0.53047051     0.11900
H2031       H  0.87539147  0.55948092  0.45861643     0.08500
H2032       H  0.87722392  0.51927189  0.46816006     0.11300
C2033       C  0.92503640  0.35777274  0.51004622    -0.03300
C2034       C  0.93450632  0.37714807  0.49916286    -0.06000
C2035       C  0.95834596  0.37964784  0.49687279    -0.21000
C2036       C  0.97334301  0.36285334  0.50529464     0.24700
C2037       C  0.96391210  0.34338424  0.51607150    -0.18600
C2038       C  0.94008047  0.34082848  0.51826380    -0.08600
C2039       C  0.99862057  0.36669088  0.50336014    -0.18800
C2040       C  0.01418464  0.34974719  0.50376060    -0.23600
C2041       C  0.03935620  0.35361765  0.50114905     0.26700
C2042       C  0.05283706  0.33626625  0.49186573    -0.20400
C2043       C  0.07646301  0.33938173  0.48860903    -0.10100
C2044       C  0.08722835  0.35984284  0.49489269    -0.10600
C2045       C  0.07391377  0.37692752  0.50495442    -0.03500
C2046       C  0.05021103  0.37388470  0.50803613    -0.18600
H2047       H  0.92363032  0.39084370  0.49310102     0.10400
H2048       H  0.96511809  0.39491431  0.48868194     0.10500
H2049       H  0.97481209  0.33030621  0.52336143     0.10200
H2050       H  0.93349032  0.32559279  0.52661112     0.11300
H2051       H  0.00445515  0.38405877  0.50037010     0.11400
H2052       H  0.00830047  0.33220050  0.50451364     0.13300
H2053       H  0.04498038  0.32037142  0.48672355     0.09800
H2054       H  0.08631641  0.32574466  0.48116646     0.11900
H2055       H  0.08167580  0.39292438  0.50987427     0.08500
H2056       H  0.04050345  0.38736852  0.51589973     0.11300
C2057       C  0.76419194  0.69193269  0.65349414    -0.03300
C2058       C  0.75991908  0.70148657  0.63169879    -0.06000
C2059       C  0.76955676  0.69203745  0.61209301    -0.21000
C2060       C  0.78397193  0.67300235  0.61372015     0.24700
C2061       C  0.78736946  0.66266744  0.63536963    -0.18600
C2062       C  0.77751330  0.67203395  0.65505085    -0.08600
C2063       C  0.79542323  0.66514610  0.59243390    -0.18800
C2064       C  0.81521051  0.65325782  0.59198885    -0.23600
C2065       C  0.82759848  0.64843514  0.57024690     0.26700
C2066       C  0.84150000  0.62905490  0.56876006    -0.20400
C2067       C  0.85285823  0.62392576  0.54827153    -0.10100
C2068       C  0.85068349  0.63814657  0.52880226    -0.10600
C2069       C  0.83792844  0.65834388  0.53091406    -0.03500
C2070       C  0.82649751  0.66337181  0.55126650    -0.18600
H2071       H  0.74957064  0.71667045  0.62980154     0.10400
H2072       H  0.76639621  0.70018368  0.59562752     0.10500
H2073       H  0.79774233  0.64753448  0.63725908     0.10200
H2074       H  0.78097099  0.66413024  0.67156035     0.11300
H2075       H  0.78785746  0.67074897  0.57631657     0.11400
H2076       H  0.82284094  0.64708148  0.60784218     0.13300
H2077       H  0.84313483  0.61755197  0.58332681     0.09800
H2078       H  0.86275884  0.60850124  0.54769030     0.11900
H2079       H  0.83667085  0.67043349  0.51683768     0.08500
H2080       H  0.81704383  0.67915429  0.55211151     0.11300
C2081       C  0.65505482  0.52992115  0.84495229    -0.03300
C2082       C  0.67813099  0.53261086  0.83834568    -0.06000
C2083       C  0.68593536  0.55305988  0.82856729    -0.21000
C2084       C  0.67086604  0.57131580  0.82473280     0.24700
C2085       C  0.64793224  0.56908413  0.83232280    -0.18600
C2086       C  0.64016302  0.54858301  0.84247211    -0.08600
C2087       C  0.68005983  0.59192940  0.81248672    -0.18800
C2088       C  0.66721678  0.60720661  0.80069530    -0.23600
C2089       C  0.67754340  0.62617289  0.78667249     0.26700
C2090       C  0.66488255  0.64614534  0.78268451    -0.20400
C2091       C  0.67438860  0.66443528  0.77012110    -0.10100
C2092       C  0.69673010  0.66307817  0.76092765    -0.10600
C2093       C  0.70894674  0.64266404  0.76401415    -0.03500
C2094       C  0.69950067  0.62446392  0.77666108    -0.18600
H2095       H  0.69012227  0.51868421  0.84038363     0.10400
H2096       H  0.70374470  0.55433308  0.82325276     0.10500
H2097       H  0.63592729  0.58296517  0.83031386     0.10200
H2098       H  0.62229402  0.54700103  0.84747200     0.11300
H2099       H  0.69862503  0.59382578  0.81222585     0.11400
H2100       H  0.64861380  0.60589880  0.80114320     0.13300
H2101       H  0.64778069  0.64782296  0.78978919     0.09800
H2102       H  0.66438862  0.67982113  0.76801748     0.11900
H2103       H  0.72608188  0.64087192  0.75704101     0.08500
H2104       H  0.70946531  0.60904396  0.77841117     0.11300
C2105       C  0.66752420  0.77233379  0.68936873    -0.03300
C2106       C  0.66809096  0.78104818  0.66677854    -0.06000
C2107       C  0.64943221  0.79329186  0.65787334    -0.21000
C2108       C  0.63005501  0.79744622  0.67147640     0.24700
C2109       C  0.62921007  0.78817844  0.69382114    -0.18600
C2110       C  0.64772369  0.77580751  0.70264930    -0.08600
C2111       C  0.61075134  0.81108398  0.66192993    -0.18800
C2112       C  0.59774177  0.82447602  0.67524696    -0.23600
C2113       C  0.57705882  0.83715895  0.66735539     0.26700
C2114       C  0.56172776  0.84481351  0.68412091    -0.20400
C2115       C  0.54115173  0.85529250  0.67789616    -0.10100
C2116       C  0.53551874  0.85862460  0.65470867    -0.10600
C2117       C  0.55132546  0.85219429  0.63784517    -0.03500
C2118       C  0.57192457  0.84145550  0.64407300    -0.18600
H2119       H  0.68302781  0.77858486  0.65603540     0.10400
H2120       H  0.65034241  0.79997623  0.64049996     0.10500
H2121       H  0.61418181  0.79029428  0.70450022     0.10200
H2122       H  0.64661376  0.76922341  0.72004177     0.11300
H2123       H  0.60752963  0.81006817  0.64366581     0.11400
H2124       H  0.60190770  0.82558073  0.69335523     0.13300
H2125       H  0.56531759  0.84200330  0.70216402     0.09800
H2126       H  0.52933289  0.86031765  0.69123475     0.11900
H2127       H  0.54728183  0.85451270  0.61983975     0.08500
H2128       H  0.58350643  0.83640261  0.63060423     0.11300
C2129       C  0.71626334  0.77293498  0.80521067    -0.03300
C2130       C  0.69901606  0.76140691  0.81770699    -0.06000
C2131       C  0.69171608  0.76940107  0.83890729    -0.21000
C2132       C  0.70092813  0.78948275  0.84783507     0.24700
C2133       C  0.71814486  0.80119977  0.83543412    -0.18600
C2134       C  0.72597721  0.79280563  0.81439026    -0.08600
C2135       C  0.69261600  0.79727115  0.87043293    -0.18800
C2136       C  0.68749329  0.81912766  0.87462346    -0.23600
C2137       C  0.67684051  0.82627074  0.89653793     0.26700
C2138       C  0.66026857  0.84349728  0.89630306    -0.20400
C2139       C  0.64995996  0.85049100  0.91669957    -0.10100
C2140       C  0.65643674  0.84096734  0.93804316    -0.10600
C2141       C  0.67306046  0.82350887  0.93808990    -0.03500
C2142       C  0.68307629  0.81628830  0.91762463    -0.18600
H2143       H  0.69133806  0.74593750  0.81121536     0.10400
H2144       H  0.67855331  0.76003378  0.84823779     0.10500
H2145       H  0.72577519  0.81656567  0.84219655     0.10200
H2146       H  0.73932960  0.80198334  0.80516323     0.11300
H2147       H  0.68835666  0.78428389  0.88318615     0.11400
H2148       H  0.68935921  0.83174637  0.86095561     0.13300
H2149       H  0.65509307  0.85140172  0.88024552     0.09800
H2150       H  0.63709672  0.86374811  0.91587801     0.11900
H2151       H  0.67860334  0.81510399  0.95362178     0.08500
H2152       H  0.69602767  0.80312149  0.91837863     0.11300
C2153       C  0.85916690  0.94476869  0.64902975    -0.03300
C2154       C  0.85913702  0.94047702  0.67278737    -0.06000
C2155       C  0.85292563  0.91906820  0.68158894    -0.21000
C2156       C  0.84606739  0.90155028  0.66691505     0.24700
C2157       C  0.84717643  0.90549279  0.64301268    -0.18600
C2158       C  0.85381174  0.92691039  0.63416984    -0.08600
C2159       C  0.83746126  0.87975195  0.67732292    -0.18800
C2160       C  0.82154794  0.86642288  0.66719492    -0.23600
C2161       C  0.81071208  0.84566558  0.67787075     0.26700
C2162       C  0.79702575  0.83179197  0.66390312    -0.20400
C2163       C  0.78547868  0.81277225  0.67295550    -0.10100
C2164       C  0.78713613  0.80702763  0.69639093    -0.10600
C2165       C  0.80099151  0.82073913  0.71045378    -0.03500
C2166       C  0.81261749  0.83984711  0.70135538    -0.18600
H2167       H  0.86342115  0.95393066  0.68460468     0.10400
H2168       H  0.85257953  0.91647163  0.70000908     0.10500
H2169       H  0.84275155  0.89218514  0.63112180     0.10200
H2170       H  0.85375764  0.92982084  0.61579518     0.11300
H2171       H  0.84339073  0.87559384  0.69447617     0.11400
H2172       H  0.81548909  0.87125288  0.65022080     0.13300
H2173       H  0.79508985  0.83577513  0.64581845     0.09800
H2174       H  0.77503293  0.80266897  0.66152053     0.11900
H2175       H  0.80264207  0.81687424  0.72858030     0.08500
H2176       H  0.82258377  0.85012885  0.71296748     0.11300
C2177       C  0.81440811  0.70443511  0.76786546    -0.03300
C2178       C  0.81916399  0.68108394  0.76613135    -0.06000
C2179       C  0.83825015  0.67160706  0.77712407    -0.21000
C2180       C  0.85314247  0.68510113  0.79022958     0.24700
C2181       C  0.84862274  0.70859167  0.79175804    -0.18600
C2182       C  0.82944086  0.71811203  0.78071085    -0.08600
C2183       C  0.87316657  0.67374265  0.80147717    -0.18800
C2184       C  0.88671342  0.68312821  0.81765579    -0.23600
C2185       C  0.90638230  0.67081058  0.82848884     0.26700
C2186       C  0.92454111  0.68333353  0.83801743    -0.20400
C2187       C  0.94344640  0.67227127  0.84793604    -0.10100
C2188       C  0.94479856  0.64832010  0.84862651    -0.10600
C2189       C  0.92602709  0.63585652  0.83981877    -0.03500
C2190       C  0.90714288  0.64692221  0.82999203    -0.18600
H2191       H  0.80803304  0.66999500  0.75637040     0.10400
H2192       H  0.84128857  0.65351785  0.77549025     0.10500
H2193       H  0.85982282  0.71980259  0.80120366     0.10200
H2194       H  0.82637662  0.73619309  0.78226732     0.11300
H2195       H  0.87678652  0.65655392  0.79599428     0.11400
H2196       H  0.88384908  0.70049846  0.82293912     0.13300
H2197       H  0.92424862  0.70176835  0.83753344     0.09800
H2198       H  0.95723219  0.68248397  0.85497875     0.11900
H2199       H  0.92523958  0.61756470  0.84060447     0.08500
H2200       H  0.89300077  0.63657789  0.82397929     0.11300
loop_ 
_geom_bond_atom_site_label_1 
_geom_bond_atom_site_label_2 
_geom_bond_distance 
_geom_bond_site_symmetry_2 
_ccdc_geom_bond_type 
O1           C17   1.278       .  A
O1           Zn7   2.047       .  S
C2           O18   1.277       .  A
C2           O15   1.276       .  A
C2         C2057   1.486       .  S
O3           C16   1.278       .  A
O3          Cd10   2.088       .  S
O4           C22   1.276       .  A
O4          Cd13   2.075       .  S
O5           C19   1.277       .  A
O5           Cd9   2.075       .  S
O6           C17   1.275       .  A
O6           Cd9   2.080       .  S
Zn7          O18   2.041       .  S
Zn7          O20   2.017       .  S
Zn7          O12   1.953       .  S
O8           C19   1.276       .  A
O8          Cd13   2.075       .  S
Cd9          O11   2.058       .  S
Cd9          O12   1.999       .  S
Cd10         O14   2.102       .  S
Cd10         O23   2.103       .  S
Cd10         O12   2.024       .  S
O11          C21   1.274       .  A
O12         Cd13   2.000       .  S
Cd13         O15   2.068       .  S
O14          C21   1.279       .  A
C16          O20   1.276       .  A
C16        C2177   1.487       .  S
C17        C2092   1.493       .  S
C19        C2105   1.485       .  S
C21        C2129   1.483       .  S
C22          O23   1.279       .  A
C22        C2164   1.493       .  S
C24          C25   1.542       .  S
C24          C30   1.532       .  S
C24          C28   1.539       .  S
C24        C1961   1.528       .  S
C25          H32   1.081       .  S
C25          C26   1.371       .  D
C26          C27   1.546       .  S
C26        C2033   1.495       .  S
C27          C31   1.541       .  S
C27          C29   1.540       .  S
C27          H33   1.108       .  S
C28          H34   1.086       .  S
C28          C29   1.367       .  D
C29        C2009   1.484       .  S
C30          H35   1.086       .  S
C30          C31   1.363       .  D
C31        C1996   1.488       .  S
C36          C37   1.544       .  S
C36          C42   1.531       .  S
C36          C40   1.530       .  S
C36        C1889   1.525       .  S
C37          H44   1.081       .  S
C37          C38   1.371       .  D
C38          C39   1.543       .  S
C38        C2044   1.488       .  S
C39          C43   1.543       .  S
C39          C41   1.541       .  S
C39          H45   1.109       .  S
C40          H46   1.086       .  S
C40          C41   1.364       .  D
C41        C1937   1.482       .  S
C42          H47   1.086       .  S
C42          C43   1.365       .  D
C43        C1913   1.487       .  S
C48          C49   1.535       .  S
C48          C54   1.529       .  S
C48          C52   1.540       .  S
C48        C1841   1.529       .  S
C49          H56   1.085       .  S
C49          C50   1.367       .  D
C50          C51   1.546       .  S
C50        C1876   1.492       .  S
C51          C55   1.549       .  S
C51          C53   1.545       .  S
C51          H57   1.107       .  S
C52          H58   1.082       .  S
C52          C53   1.370       .  D
C53        C2020   1.492       .  S
C54          H59   1.085       .  S
C54          C55   1.368       .  D
C55        C2068   1.499       .  S
C60          C61   1.534       .  S
C60          C66   1.530       .  S
C60          C64   1.542       .  S
C60        C1793   1.527       .  S
C61          H68   1.086       .  S
C61          C62   1.369       .  D
C62          C63   1.546       .  S
C62        C1865   1.494       .  S
C63          C67   1.544       .  S
C63          C65   1.541       .  S
C63          H69   1.108       .  S
C64          H70   1.079       .  S
C64          C65   1.368       .  D
C65        C1948   1.488       .  S
C66          H71   1.086       .  S
C66          C67   1.363       .  D
C67        C1828   1.486       .  S
C72          C73   1.531       .  S
C72          C78   1.536       .  S
C72          C76   1.543       .  S
C72        C1732   1.533       .  S
C73          H80   1.086       .  S
C73          C74   1.366       .  D
C74          C75   1.545       .  S
C74        C1756   1.488       .  S
C75          C79   1.545       .  S
C75          C77   1.546       .  S
C75          H81   1.110       .  S
C76          H82   1.082       .  S
C76          C77   1.370       .  D
C77        C1769   1.492       .  S
C78          H83   1.086       .  S
C78          C79   1.367       .  D
C79        C1708   1.489       .  S
C84          C85   1.536       .  S
C84          C90   1.534       .  S
C84          C88   1.548       .  S
C84        C1660   1.535       .  S
C85          H92   1.086       .  S
C85          C86   1.367       .  D
C86          C87   1.541       .  S
C86        C1673   1.485       .  S
C87          C91   1.546       .  S
C87          C89   1.544       .  S
C87          H93   1.107       .  S
C88          H94   1.080       .  S
C88          C89   1.370       .  D
C89        C1780   1.497       .  S
C90          H95   1.085       .  S
C90          C91   1.368       .  D
C91        C1625   1.500       .  S
C96          C97   1.537       .  S
C96         C102   1.540       .  S
C96         C100   1.538       .  S
C96        C1577   1.537       .  S
C97         H104   1.086       .  S
C97          C98   1.367       .  D
C98          C99   1.542       .  S
C98        C1601   1.489       .  S
C99         C103   1.546       .  S
C99         C101   1.543       .  S
C99         H105   1.109       .  S
C100        H106   1.086       .  S
C100        C101   1.370       .  D
C101       C1745   1.492       .  S
C102        H107   1.081       .  S
C102        C103   1.369       .  D
C103       C2081   1.492       .  S
C108        C109   1.537       .  S
C108        C114   1.532       .  S
C108        C112   1.546       .  S
C108       C1564   1.530       .  S
C109        H116   1.086       .  S
C109        C110   1.366       .  D
C110        C111   1.541       .  S
C110       C1684   1.485       .  S
C111        C115   1.540       .  S
C111        C113   1.542       .  S
C111        H117   1.109       .  S
C112        H118   1.081       .  S
C112        C113   1.372       .  D
C113       C1612   1.493       .  S
C114        H119   1.086       .  S
C114        C115   1.364       .  D
C115       C1529   1.484       .  S
C120        C121   1.544       .  S
C120        C126   1.535       .  S
C120        C124   1.539       .  S
C120       C1444   1.534       .  S
C121        H128   1.081       .  S
C121        C122   1.368       .  D
C122        C123   1.540       .  S
C122       C1505   1.488       .  S
C123        C127   1.539       .  S
C123        C125   1.544       .  S
C123        H129   1.109       .  S
C124        H130   1.085       .  S
C124        C125   1.372       .  D
C125       C1492   1.493       .  S
C126        H131   1.086       .  S
C126        C127   1.362       .  D
C127       C1457   1.478       .  S
C132        C133   1.536       .  S
C132        C138   1.527       .  S
C132        C136   1.542       .  S
C132       C1385   1.529       .  S
C133        H140   1.086       .  S
C133        C134   1.367       .  D
C134        C135   1.544       .  S
C134       C1420   1.489       .  S
C135        C139   1.548       .  S
C135        C137   1.546       .  S
C135        H141   1.108       .  S
C136        H142   1.080       .  S
C136        C137   1.372       .  D
C137       C1516   1.497       .  S
C138        H143   1.086       .  S
C138        C139   1.364       .  D
C139       C1361   1.490       .  S
C144        C145   1.541       .  S
C144        C150   1.528       .  S
C144        C148   1.539       .  S
C144       C1313   1.529       .  S
C145        H152   1.083       .  S
C145        C146   1.372       .  D
C146        C147   1.546       .  S
C146       C1337   1.494       .  S
C147        C151   1.542       .  S
C147        C149   1.540       .  S
C147        H153   1.110       .  S
C148        H154   1.086       .  S
C148        C149   1.366       .  D
C149       C1481   1.484       .  S
C150        H155   1.087       .  S
C150        C151   1.364       .  D
C151       C2116   1.481       .  S
C156        C157   1.535       .  S
C156        C162   1.533       .  S
C156        C160   1.542       .  S
C156       C1300   1.533       .  S
C157        H164   1.086       .  S
C157        C158   1.367       .  D
C158        C159   1.541       .  S
C158       C1409   1.487       .  S
C159        C163   1.550       .  S
C159        C161   1.540       .  S
C159        H165   1.108       .  S
C160        H166   1.080       .  S
C160        C161   1.367       .  D
C161       C1348   1.492       .  S
C162        H167   1.085       .  S
C162        C163   1.370       .  D
C163       C1265   1.495       .  S
O168        C184   1.277       .  A
O168       Zn174   2.033       .  S
C169        O185   1.276       .  A
C169        O182   1.274       .  A
C169       C1289   1.485       .  S
O170        C183   1.279       .  A
O170       Cd177   2.106       .  S
O171        C189   1.273       .  A
O171       Cd180   2.048       .  S
O172        C186   1.276       .  A
O172       Cd176   2.083       .  S
O173        C184   1.274       .  A
O173       Cd176   2.064       .  S
Zn174       O185   2.032       .  S
Zn174       O187   2.012       .  S
Zn174       O179   1.943       .  S
O175        C186   1.275       .  A
O175       Cd180   2.073       .  S
Cd176       O178   2.042       .  S
Cd176       O179   1.993       .  S
Cd177       O181   2.108       .  S
Cd177       O190   2.090       .  S
Cd177       O179   2.030       .  S
O178        C188   1.273       .  A
O179       Cd180   1.992       .  S
Cd180       O182   2.067       .  S
O181        C188   1.280       .  A
C183        O187   1.275       .  A
C183       C1241   1.492       .  S
C184       C1924   1.483       .  S
C186       C1721   1.488       .  S
C188       C1228   1.486       .  S
C189        O190   1.278       .  A
C189       C1204   1.482       .  S
O191        C207   1.276       .  A
O191       Zn197   2.042       .  S
C192        O208   1.276       .  A
C192        O205   1.275       .  A
C192       C1132   1.487       .  S
O193        C206   1.280       .  A
O193       Cd200   2.105       .  S
O194        C212   1.275       .  A
O194       Cd203   2.056       .  S
O195        C209   1.272       .  A
O195       Cd199   2.056       .  S
O196        C207   1.272       .  A
O196       Cd199   2.047       .  S
Zn197       O208   2.026       .  S
Zn197       O210   2.010       .  S
Zn197       O202   1.950       .  S
O198        C209   1.276       .  A
O198       Cd203   2.088       .  S
Cd199       O201   2.052       .  S
Cd199       O202   1.984       .  S
Cd200       O204   2.110       .  S
Cd200       O213   2.099       .  S
Cd200       O202   2.026       .  S
O201        C211   1.274       .  A
O202       Cd203   2.006       .  S
Cd203       O205   2.077       .  S
O204        C211   1.280       .  A
C206        O210   1.275       .  A
C206       C1468   1.489       .  S
C207       C1145   1.478       .  S
C209       C1180   1.484       .  S
C211       C1649   1.490       .  S
C212        O213   1.280       .  A
C212       C1817   1.483       .  S
O214        C230   1.275       .  A
O214       Zn220   2.035       .  S
C215        O231   1.275       .  A
C215        O228   1.277       .  A
C215       C1108   1.486       .  S
O216        C229   1.278       .  A
O216       Cd223   2.095       .  S
O217        C235   1.275       .  A
O217       Cd226   2.059       .  S
O218        C232   1.275       .  A
O218       Cd222   2.069       .  S
O219        C230   1.275       .  A
O219       Cd222   2.069       .  S
Zn220       O231   2.015       .  S
Zn220       O233   1.996       .  S
Zn220       O225   1.942       .  S
O221        C232   1.277       .  A
O221       Cd226   2.089       .  S
Cd222       O224   2.048       .  S
Cd222       O225   1.989       .  S
Cd223       O227   2.100       .  S
Cd223       O236   2.101       .  S
Cd223       O225   2.029       .  S
O224        C234   1.273       .  A
O225       Cd226   2.001       .  S
Cd226       O228   2.085       .  S
O227        C234   1.279       .  A
C229        O233   1.273       .  A
C229       C1396   1.484       .  S
C230       C1084   1.487       .  S
C232       C1049   1.485       .  S
C234       C1553   1.481       .  S
C235        O236   1.279       .  A
C235       C1985   1.488       .  S
O237        C253   1.277       .  A
O237       Zn243   2.025       .  S
C238        O254   1.276       .  A
C238        O251   1.273       .  A
C238        C977   1.483       .  S
O239        C252   1.278       .  A
O239       Cd246   2.093       .  S
O240        C258   1.272       .  A
O240       Cd249   2.048       .  S
O241        C255   1.276       .  A
O241       Cd245   2.087       .  S
O242        C253   1.278       .  A
O242       Cd245   2.087       .  S
Zn243       O254   2.039       .  S
Zn243       O256   2.026       .  S
Zn243       O248   1.950       .  S
O244        C255   1.273       .  A
O244       Cd249   2.062       .  S
Cd245       O247   2.063       .  S
Cd245       O248   2.006       .  S
Cd246       O250   2.097       .  S
Cd246       O259   2.098       .  S
Cd246       O248   2.018       .  S
O247        C257   1.275       .  A
O248       Cd249   1.991       .  S
Cd249       O251   2.053       .  S
O250        C257   1.279       .  A
C252        O256   1.276       .  A
C252       C1588   1.490       .  S
C253       C1001   1.488       .  S
C255       C1025   1.483       .  S
C257       C1276   1.481       .  S
C258        O259   1.279       .  A
C258       C1972   1.484       .  S
C260        C261   1.538       .  S
C260        C266   1.539       .  S
C260        C264   1.536       .  S
C260       C2140   1.535       .  S
C261        H268   1.086       .  S
C261        C262   1.370       .  D
C262        C263   1.544       .  S
C262        C940   1.491       .  S
C263        C267   1.544   1_556  S
C263        C265   1.544       .  S
C263        H269   1.108   1_556  S
C264        H270   1.085       .  S
C264        C265   1.368       .  D
C265        C964   1.493       .  S
C266        H271   1.081       .  S
C266        C267   1.366   1_556  D
C267        C905   1.491       .  S
C272        C273   1.546       .  S
C272        C278   1.534       .  S
C272        C276   1.537       .  S
C272       C1073   1.531       .  S
C273        H280   1.082       .  S
C273        C274   1.371       .  D
C274        C275   1.544       .  S
C274        C892   1.491       .  S
C275        C279   1.541   1_554  S
C275        C277   1.539       .  S
C275        H281   1.109   1_554  S
C276        H282   1.086       .  S
C276        C277   1.365       .  D
C277        C953   1.484       .  S
C278        H283   1.086       .  S
C278        C279   1.367   1_554  D
C279       C1012   1.490       .  S
C284        C285   1.534       .  S
C284        C290   1.540       .  S
C284        C288   1.534       .  S
C284       C1156   1.531       .  S
C285        H292   1.085       .  S
C285        C286   1.370       .  D
C286        C287   1.550   1_554  S
C286        C929   1.497       .  S
C287        C291   1.545       .  S
C287        C289   1.543   1_556  S
C287        H293   1.109       .  S
C288        H294   1.087       .  S
C288        C289   1.364       .  D
C289        C868   1.485       .  S
C290        H295   1.079       .  S
C290        C291   1.367   1_554  D
C291        C833   1.491       .  S
C296        C297   1.544       .  S
C296        C302   1.537       .  S
C296        C300   1.531       .  S
C296       C1193   1.532       .  S
C297        H304   1.079       .  S
C297        C298   1.367       .  D
C298        C299   1.544   1_556  S
C298        C881   1.496   1_556  S
C299        C303   1.544       .  S
C299        C301   1.548   1_554  S
C299        H305   1.107       .  S
C300        H306   1.085       .  S
C300        C301   1.367       .  D
C301        C857   1.496       .  S
C302        H307   1.086       .  S
C302        C303   1.369   1_556  D
C303        C809   1.491       .  S
O308        C324   1.274       .  A
O308       Zn314   2.014       .  S
C309        O325   1.274       .  A
C309        O322   1.277       .  A
C309       C1697   1.491       .  S
O310        C323   1.283       .  A
O310       Cd317   2.130       .  S
O311        C329   1.275       .  A
O311       Cd320   2.053       .  S
O312        C326   1.275       .  A
O312       Cd316   2.072       .  S
O313        C324   1.274       .  A
O313       Cd316   2.062       .  S
Zn314       O325   2.019       .  S
Zn314       O327   1.990       .  S
Zn314       O319   1.938       .  S
O315        C326   1.277       .  A
O315       Cd320   2.084       .  S
Cd316       O318   2.071       .  S
Cd316       O319   1.998       .  S
Cd317       O321   2.122       .  S
Cd317       O330   2.113       .  S
Cd317       O319   2.032       .  S
O318        C328   1.276       .  A
O319       Cd320   2.005       .  S
Cd320       O322   2.095       .  S
O321        C328   1.282       .  A
C323        O327   1.272       .  A
C323        C785   1.494       .  S
C324       C1804   1.479       .  S
C326       C1324   1.484       .  S
C328        C772   1.498       .  S
C329        O330   1.282       .  A
C329        C844   1.489       .  S
C331        C332   1.531       .  S
C331        C337   1.531   1_545  S
C331        C335   1.541       .  S
C331       C1036   1.531       .  S
C332        H339   1.086       .  S
C332        C333   1.367   1_545  D
C333        C334   1.548       .  S
C333        C737   1.491       .  S
C334        C338   1.548       .  S
C334        C336   1.549       .  S
C334        H340   1.110       .  S
C335        H341   1.081       .  S
C335        C336   1.369   1_545  D
C336        C713   1.493       .  S
C337        H342   1.087       .  S
C337        C338   1.366       .  D
C338       C2153   1.487       .  S
C343        C344   1.547       .  S
C343        C349   1.535       .  S
C343        C347   1.536       .  S
C343       C1252   1.539       .  S
C344        H351   1.080       .  S
C344        C345   1.367       .  D
C345        C346   1.541   1_545  S
C345        C700   1.493   1_545  S
C346        C350   1.553       .  S
C346        C348   1.544   1_565  S
C346        H352   1.106       .  S
C347        H353   1.085       .  S
C347        C348   1.370       .  D
C348        C748   1.497   1_545  S
C349        H354   1.085       .  S
C349        C350   1.370   1_545  D
C350        C761   1.503       .  S
C355        C356   1.544       .  S
C355        C361   1.528       .  S
C355        C359   1.537       .  S
C355        C641   1.536       .  S
C356        H363   1.082       .  S
C356        C357   1.367       .  D
C357        C358   1.543       .  S
C357        C665   1.486       .  S
C358        C362   1.547   1_565  S
C358        C360   1.553       .  S
C358        H364   1.108   1_565  S
C359        H365   1.084       .  S
C359        C360   1.374       .  D
C360        C724   1.507       .  S
C361        H366   1.086       .  S
C361        C362   1.366   1_565  D
C362       C1097   1.494       .  S
C367        C368   1.540       .  S
C367        C373   1.530       .  S
C367        C371   1.542       .  S
C367        C617   1.532       .  S
C368        H375   1.085       .  S
C368        C369   1.370       .  D
C369        C370   1.547       .  S
C369        C676   1.495       .  S
C370        C374   1.542   1_545  S
C370        C372   1.548       .  S
C370        H376   1.108   1_545  S
C371        H377   1.082       .  S
C371        C372   1.371       .  D
C372        C689   1.499       .  S
C373        H378   1.086       .  S
C373        C374   1.364   1_545  D
C374       C1121   1.488       .  S
O379        C395   1.274       .  A
O379       Zn385   2.018       .  S
C380        O396   1.273       .  A
C380        O393   1.277       .  A
C380       C1540   1.487       .  S
O381        C394   1.280       .  A
O381       Cd388   2.110       .  S
O382        C400   1.276       .  A
O382       Cd391   2.062       .  S
O383        C397   1.275       .  A
O383       Cd387   2.062       .  S
O384        C395   1.274       .  A
O384       Cd387   2.069       .  S
Zn385       O396   2.009       .  S
Zn385       O398   1.991       .  S
Zn385       O390   1.938       .  S
O386        C397   1.278       .  A
O386       Cd391   2.097       .  S
Cd387       O389   2.054       .  S
Cd387       O390   1.992       .  S
Cd388       O392   2.116       .  S
Cd388       O401   2.109       .  S
Cd388       O390   2.032       .  S
O389        C399   1.274       .  A
O390       Cd391   2.008       .  S
Cd391       O393   2.091       .  S
O392        C399   1.281       .  A
C394        O398   1.272       .  A
C394        C593   1.488       .  S
C395       C1852   1.483       .  S
C397       C1433   1.488       .  S
C399        C652   1.492       .  S
C400        O401   1.281       .  A
C400        C916   1.489       .  S
C402        C403   1.540       .  S
C402        C408   1.534       .  S
C402        C406   1.538       .  S
C402       C2188   1.535       .  S
C403        H410   1.081       .  S
C403        C404   1.365       .  D
C404        C405   1.543   1_655  S
C404        C556   1.489       .  S
C405        C409   1.550       .  S
C405        C407   1.545   1_455  S
C405        H411   1.109       .  S
C406        H412   1.085       .  S
C406        C407   1.372       .  D
C407        C580   1.495       .  S
C408        H413   1.086       .  S
C408        C409   1.367   1_655  D
C409        C796   1.492       .  S
C414        C415   1.534       .  S
C414        C420   1.532       .  S
C414        C418   1.548       .  S
C414       C1169   1.532       .  S
C415        H422   1.085       .  S
C415        C416   1.371       .  D
C416        C417   1.547   1_455  S
C416        C532   1.498       .  S
C417        C421   1.543       .  S
C417        C419   1.536   1_655  S
C417        H423   1.109       .  S
C418        H424   1.081       .  S
C418        C419   1.367       .  D
C419        C569   1.481       .  S
C420        H425   1.086       .  S
C420        C421   1.365   1_455  D
C421        C604   1.488       .  S
C426        C427   1.538       .  S
C426        C432   1.540       .  S
C426        C430   1.538       .  S
C426        C988   1.532       .  S
C427        H434   1.085       .  S
C427        C428   1.369       .  D
C428        C429   1.541   1_655  S
C428        C508   1.489       .  S
C429        C433   1.537       .  S
C429        C431   1.545   1_455  S
C429        H435   1.108       .  S
C430        H436   1.085       .  S
C430        C431   1.371       .  D
C431        C545   1.494       .  S
C432        H437   1.081       .  S
C432        C433   1.362   1_655  D
C433       C1217   1.480       .  S
C438        C439   1.537       .  S
C438        C444   1.541       .  S
C438        C442   1.534       .  S
C438        C473   1.533       .  S
C439        H446   1.086       .  S
C439        C440   1.366       .  D
C440        C441   1.542       .  S
C440        C497   1.483       .  S
C441        C445   1.543       .  S
C441        C443   1.543       .  S
C441        H447   1.110   1_455  S
C442        H448   1.086       .  S
C442        C443   1.370       .  D
C443        C521   1.490       .  S
C444        H449   1.081       .  S
C444        C445   1.366       .  D
C445       C1060   1.487   1_455  S
O450        C466   1.276       .  A
O450       Zn456   2.018       .  S
C451        O467   1.276       .  A
C451        O464   1.274       .  A
C451        C484   1.485       .  S
O452        C465   1.280       .  A
O452       Cd459   2.103       .  S
O453        C471   1.272       .  A
O453       Cd462   2.038       .  S
O454        C468   1.276       .  A
O454       Cd458   2.090       .  S
O455        C466   1.277       .  A
O455       Cd458   2.084       .  S
Zn456       O467   2.041       .  S
Zn456       O469   2.010       .  S
Zn456       O461   1.941       .  S
O457        C468   1.273       .  A
O457       Cd462   2.061       .  S
Cd458       O460   2.059       .  S
Cd458       O461   2.001       .  S
Cd459       O463   2.104       .  S
Cd459       O472   2.104       .  S
Cd459       O461   2.026       .  S
O460        C470   1.276       .  A
O461       Cd462   1.985       .  S
Cd462       O464   2.062       .  S
O463        C470   1.280       .  A
C465        O469   1.274       .  A
C465       C1636   1.485       .  S
C466        C820   1.487       .  S
C468        C628   1.486       .  S
C470       C1372   1.488       .  S
C471        O472   1.279       .  A
C471       C1900   1.482       .  S
C473        C474   1.410       .  A
C473        C478   1.411       .  A
C474        C475   1.401       .  A
C474        H487   1.083       .  S
C475        C476   1.403       .  A
C475        H488   1.083       .  S
C476        C479   1.492       .  S
C476        C477   1.406       .  A
C477        C478   1.398       .  A
C477        H489   1.082       .  S
C478        H490   1.077       .  S
C479        H491   1.083       .  S
C479        C480   1.351       .  D
C480        H492   1.085       .  S
C480        C481   1.494       .  S
C481        C482   1.405       .  A
C481        C486   1.411       .  A
C482        C483   1.396       .  A
C482        H493   1.083       .  S
C483        C484   1.405       .  A
C483        H494   1.083       .  S
C484        C485   1.406       .  A
C485        C486   1.404       .  A
C485        H495   1.083       .  S
C486        H496   1.080       .  S
C497        C498   1.404       .  A
C497        C502   1.403       .  A
C498        C499   1.397       .  A
C498        H511   1.083       .  S
C499        C500   1.403       .  A
C499        H512   1.083       .  S
C500        C503   1.488       .  S
C500        C501   1.410       .  A
C501        C502   1.401       .  A
C501        H513   1.082   1_455  S
C502        H514   1.083       .  S
C503        H515   1.084   1_455  S
C503        C504   1.348       .  D
C504        H516   1.085       .  S
C504        C505   1.491   1_454  S
C505        C506   1.404   1_655  A
C505        C510   1.409       .  A
C506        C507   1.397       .  A
C506        H517   1.083       .  S
C507        C508   1.405   1_455  A
C507        H518   1.082       .  S
C508        C509   1.406       .  A
C509        C510   1.399       .  A
C509        H519   1.082       .  S
C510        H520   1.080       .  S
C521        C522   1.403       .  A
C521        C526   1.406       .  A
C522        C523   1.395       .  A
C522        H535   1.083       .  S
C523        C524   1.404       .  A
C523        H536   1.083       .  S
C524        C527   1.495       .  S
C524        C525   1.411   1_455  A
C525        C526   1.407   1_655  A
C525        H537   1.080       .  S
C526        H538   1.083   1_455  S
C527        H539   1.086       .  S
C527        C528   1.351   1_455  D
C528        H540   1.084       .  S
C528        C529   1.495   1_655  S
C529        C530   1.406   1_455  A
C529        C534   1.406       .  A
C530        C531   1.406       .  A
C530        H541   1.083       .  S
C531        C532   1.408   1_655  A
C531        H542   1.082       .  S
C532        C533   1.408       .  A
C533        C534   1.396       .  A
C533        H543   1.081       .  S
C534        H544   1.082       .  S
C545        C546   1.407   1_655  A
C545        C550   1.407       .  A
C546        C547   1.403       .  A
C546        H559   1.082       .  S
C547        C548   1.405   1_455  A
C547        H560   1.083       .  S
C548        C551   1.494   1_655  S
C548        C549   1.408       .  A
C549        C550   1.399       .  A
C549        H561   1.082       .  S
C550        H562   1.082       .  S
C551        H563   1.084       .  S
C551        C552   1.350   1_455  D
C552        H564   1.086       .  S
C552        C553   1.494       .  S
C553        C554   1.403       .  A
C553        C558   1.413   1_655  A
C554        C555   1.394       .  A
C554        H565   1.084       .  S
C555        C556   1.405       .  A
C555        H566   1.083       .  S
C556        C557   1.404   1_655  A
C557        C558   1.408       .  A
C557        H567   1.083       .  S
C558        H568   1.081       .  S
C569        C570   1.402   1_455  A
C569        C574   1.403       .  A
C570        C571   1.398       .  A
C570        H583   1.083       .  S
C571        C572   1.405       .  A
C571        H584   1.083       .  S
C572        C575   1.489       .  S
C572        C573   1.409   1_655  A
C573        C574   1.399       .  A
C573        H585   1.081       .  S
C574        H586   1.083       .  S
C575        H587   1.083       .  S
C575        C576   1.349   1_654  D
C576        H588   1.084       .  S
C576        C577   1.491   1_455  S
C577        C578   1.404   1_655  A
C577        C582   1.408       .  A
C578        C579   1.398       .  A
C578        H589   1.083       .  S
C579        C580   1.405   1_455  A
C579        H590   1.078       .  S
C580        C581   1.408       .  A
C581        C582   1.399       .  A
C581        H591   1.082       .  S
C582        H592   1.080       .  S
C593        C594   1.407       .  A
C593        C598   1.406       .  A
C594        C595   1.394       .  A
C594        H607   1.083       .  S
C595        C596   1.402       .  A
C595        H608   1.084       .  S
C596        C599   1.494       .  S
C596        C597   1.413       .  A
C597        C598   1.406       .  A
C597        H609   1.080       .  S
C598        H610   1.083       .  S
C599        H611   1.083       .  S
C599        C600   1.348       .  D
C600        H612   1.084       .  S
C600        C601   1.495       .  S
C601        C602   1.403       .  A
C601        C606   1.413       .  A
C602        C603   1.396       .  A
C602        H613   1.083       .  S
C603        C604   1.406       .  A
C603        H614   1.083       .  S
C604        C605   1.403       .  A
C605        C606   1.403       .  A
C605        H615   1.083       .  S
C606        H616   1.080       .  S
C617        C618   1.409       .  A
C617        C622   1.412       .  A
C618        C619   1.397       .  A
C618        H631   1.083       .  S
C619        C620   1.401       .  A
C619        H632   1.083       .  S
C620        C623   1.488       .  S
C620        C621   1.406       .  A
C621        C622   1.402       .  A
C621        H633   1.082       .  S
C622        H634   1.079       .  S
C623        H635   1.086       .  S
C623        C624   1.349       .  D
C624        H636   1.086       .  S
C624        C625   1.490       .  S
C625        C626   1.405       .  A
C625        C630   1.407       .  A
C626        C627   1.403       .  A
C626        H637   1.083       .  S
C627        C628   1.407       .  A
C627        H638   1.083       .  S
C628        C629   1.406       .  A
C629        C630   1.397       .  A
C629        H639   1.083       .  S
C630        H640   1.082       .  S
C641        C642   1.409       .  A
C641        C646   1.413       .  A
C642        C643   1.399       .  A
C642        H655   1.083       .  S
C643        C644   1.403       .  A
C643        H656   1.083       .  S
C644        C647   1.494       .  S
C644        C645   1.407       .  A
C645        C646   1.403       .  A
C645        H657   1.081       .  S
C646        H658   1.078       .  S
C647        H659   1.085       .  S
C647        C648   1.353       .  D
C648        H660   1.085       .  S
C648        C649   1.496       .  S
C649        C650   1.408       .  A
C649        C654   1.406       .  A
C650        C651   1.406       .  A
C650        H661   1.083       .  S
C651        C652   1.406       .  A
C651        H662   1.083       .  S
C652        C653   1.409       .  A
C653        C654   1.397       .  A
C653        H663   1.083       .  S
C654        H664   1.081       .  S
C665        C666   1.405       .  A
C665        C670   1.402       .  A
C666        C667   1.401       .  A
C666        H679   1.083       .  S
C667        C668   1.405       .  A
C667        H680   1.083       .  S
C668        C671   1.492   1_565  S
C668        C669   1.409       .  A
C669        C670   1.399       .  A
C669        H681   1.081   1_565  S
C670        H682   1.078       .  S
C671        H683   1.084   1_655  S
C671        C672   1.350   1_655  D
C672        H684   1.085   1_545  S
C672        C673   1.492       .  S
C673        C674   1.404   1_545  A
C673        C678   1.408       .  A
C674        C675   1.398   1_565  A
C674        H685   1.083       .  S
C675        C676   1.403       .  A
C675        H686   1.077   1_545  S
C676        C677   1.409       .  A
C677        C678   1.402       .  A
C677        H687   1.082       .  S
C678        H688   1.081       .  S
C689        C690   1.408       .  A
C689        C694   1.406   1_545  A
C690        C691   1.399       .  A
C690        H703   1.082       .  S
C691        C692   1.404       .  A
C691        H704   1.083       .  S
C692        C695   1.494       .  S
C692        C693   1.408   1_545  A
C693        C694   1.403       .  A
C693        H705   1.081       .  S
C694        H706   1.077       .  S
C695        H707   1.083       .  S
C695        C696   1.352   1_545  D
C696        H708   1.084       .  S
C696        C697   1.497       .  S
C697        C698   1.406       .  A
C697        C702   1.410   1_565  A
C698        C699   1.402       .  A
C698        H709   1.083       .  S
C699        C700   1.405       .  A
C699        H710   1.083       .  S
C700        C701   1.406   1_565  A
C701        C702   1.401       .  A
C701        H711   1.083       .  S
C702        H712   1.080       .  S
C713        C714   1.406       .  A
C713        C718   1.405       .  A
C714        C715   1.398       .  A
C714        H727   1.083       .  S
C715        C716   1.403       .  A
C715        H728   1.083       .  S
C716        C719   1.493       .  S
C716        C717   1.409       .  A
C717        C718   1.406       .  A
C717        H729   1.082       .  S
C718        H730   1.079       .  S
C719        H731   1.084       .  S
C719        C720   1.351       .  D
C720        H732   1.086       .  S
C720        C721   1.498       .  S
C721        C722   1.405       .  A
C721        C726   1.407       .  A
C722        C723   1.403       .  A
C722        H733   1.083   1_565  S
C723        C724   1.408       .  A
C723        H734   1.077   1_565  S
C724        C725   1.411       .  A
C725        C726   1.401       .  A
C725        H735   1.081       .  S
C726        H736   1.081       .  S
C737        C738   1.407   1_565  A
C737        C742   1.405       .  A
C738        C739   1.394       .  A
C738        H751   1.083       .  S
C739        C740   1.400   1_545  A
C739        H752   1.084       .  S
C740        C743   1.485       .  S
C740        C741   1.408       .  A
C741        C742   1.404       .  A
C741        H753   1.082       .  S
C742        H754   1.079       .  S
C743        H755   1.087   1_565  S
C743        C744   1.346   1_655  D
C744        H756   1.086       .  S
C744        C745   1.486       .  S
C745        C746   1.402       .  A
C745        C750   1.405   1_565  A
C746        C747   1.401       .  A
C746        H757   1.083       .  S
C747        C748   1.408       .  A
C747        H758   1.081       .  S
C748        C749   1.409   1_565  A
C749        C750   1.397       .  A
C749        H759   1.081       .  S
C750        H760   1.083       .  S
C761        C762   1.405       .  A
C761        C766   1.411       .  A
C762        C763   1.405       .  A
C762        H775   1.082       .  S
C763        C764   1.409       .  A
C763        H776   1.083       .  S
C764        C767   1.504       .  S
C764        C765   1.409       .  A
C765        C766   1.404       .  A
C765        H777   1.080       .  S
C766        H778   1.082       .  S
C767        H779   1.084       .  S
C767        C768   1.357       .  D
C768        H780   1.084       .  S
C768        C769   1.504       .  S
C769        C770   1.409       .  A
C769        C774   1.408       .  A
C770        C771   1.407       .  A
C770        H781   1.083       .  S
C771        C772   1.407       .  A
C771        H782   1.083       .  S
C772        C773   1.410       .  A
C773        C774   1.403       .  A
C773        H783   1.083       .  S
C774        H784   1.081       .  S
C785        C786   1.410       .  A
C785        C790   1.408       .  A
C786        C787   1.395       .  A
C786        H799   1.083       .  S
C787        C788   1.400       .  A
C787        H800   1.084       .  S
C788        C791   1.493       .  S
C788        C789   1.411       .  A
C789        C790   1.410       .  A
C789        H801   1.082       .  S
C790        H802   1.083       .  S
C791        H803   1.086       .  S
C791        C792   1.348       .  D
C792        H804   1.086       .  S
C792        C793   1.496       .  S
C793        C794   1.405       .  A
C793        C798   1.409       .  A
C794        C795   1.402       .  A
C794        H805   1.083       .  S
C795        C796   1.403       .  A
C795        H806   1.079       .  S
C796        C797   1.406       .  A
C797        C798   1.403       .  A
C797        H807   1.083       .  S
C798        H808   1.082       .  S
C809        C810   1.405       .  A
C809        C814   1.407       .  A
C810        C811   1.400       .  A
C810        H823   1.082       .  S
C811        C812   1.403       .  A
C811        H824   1.083       .  S
C812        C815   1.490       .  S
C812        C813   1.408       .  A
C813        C814   1.400       .  A
C813        H825   1.082       .  S
C814        H826   1.083       .  S
C815        H827   1.085       .  S
C815        C816   1.348       .  D
C816        H828   1.086       .  S
C816        C817   1.489       .  S
C817        C818   1.403       .  A
C817        C822   1.409       .  A
C818        C819   1.396       .  A
C818        H829   1.083       .  S
C819        C820   1.406       .  A
C819        H830   1.083       .  S
C820        C821   1.408       .  A
C821        C822   1.403       .  A
C821        H831   1.083       .  S
C822        H832   1.082       .  S
C833        C834   1.403       .  A
C833        C838   1.407       .  A
C834        C835   1.403       .  A
C834        H847   1.083       .  S
C835        C836   1.409       .  A
C835        H848   1.083       .  S
C836        C839   1.494       .  S
C836        C837   1.407       .  A
C837        C838   1.396       .  A
C837        H849   1.080       .  S
C838        H850   1.082       .  S
C839        H851   1.082       .  S
C839        C840   1.355       .  D
C840        H852   1.083       .  S
C840        C841   1.496       .  S
C841        C842   1.409       .  A
C841        C846   1.407       .  A
C842        C843   1.404       .  A
C842        H853   1.083       .  S
C843        C844   1.405       .  A
C843        H854   1.083       .  S
C844        C845   1.408       .  A
C845        C846   1.396       .  A
C845        H855   1.083       .  S
C846        H856   1.079       .  S
C857        C858   1.404   1_556  A
C857        C862   1.410       .  A
C858        C859   1.398       .  A
C858        H871   1.078       .  S
C859        C860   1.403   1_554  A
C859        H872   1.083       .  S
C860        C863   1.488       .  S
C860        C861   1.406       .  A
C861        C862   1.399       .  A
C861        H873   1.081       .  S
C862        H874   1.082       .  S
C863        H875   1.086   1_556  S
C863        C864   1.348   1_545  D
C864        H876   1.085   1_565  S
C864        C865   1.486       .  S
C865        C866   1.403   1_556  A
C865        C870   1.407       .  A
C866        C867   1.398       .  A
C866        H877   1.083       .  S
C867        C868   1.406       .  A
C867        H878   1.083       .  S
C868        C869   1.402   1_554  A
C869        C870   1.399       .  A
C869        H879   1.078       .  S
C870        H880   1.082       .  S
C881        C882   1.409   1_554  A
C881        C886   1.403       .  A
C882        C883   1.400   1_556  A
C882        H895   1.082       .  S
C883        C884   1.403       .  A
C883        H896   1.084   1_554  S
C884        C887   1.491       .  S
C884        C885   1.408       .  A
C885        C886   1.398       .  A
C885        H897   1.082       .  S
C886        H898   1.078       .  S
C887        H899   1.085       .  S
C887        C888   1.349       .  D
C888        H900   1.085       .  S
C888        C889   1.491       .  S
C889        C890   1.404       .  A
C889        C894   1.409       .  A
C890        C891   1.397       .  A
C890        H901   1.083       .  S
C891        C892   1.403       .  A
C891        H902   1.082       .  S
C892        C893   1.408       .  A
C893        C894   1.403       .  A
C893        H903   1.083       .  S
C894        H904   1.081       .  S
C905        C906   1.404       .  A
C905        C910   1.405       .  A
C906        C907   1.405       .  A
C906        H919   1.081       .  S
C907        C908   1.407       .  A
C907        H920   1.083       .  S
C908        C911   1.495       .  S
C908        C909   1.408       .  A
C909        C910   1.397       .  A
C909        H921   1.081       .  S
C910        H922   1.083       .  S
C911        H923   1.086       .  S
C911        C912   1.349       .  D
C912        H924   1.085       .  S
C912        C913   1.489       .  S
C913        C914   1.401       .  A
C913        C918   1.410       .  A
C914        C915   1.395       .  A
C914        H925   1.084       .  S
C915        C916   1.407       .  A
C915        H926   1.083       .  S
C916        C917   1.408       .  A
C917        C918   1.408       .  A
C917        H927   1.083       .  S
C918        H928   1.082       .  S
C929        C930   1.405   1_554  A
C929        C934   1.409       .  A
C930        C931   1.401       .  A
C930        H943   1.077       .  S
C931        C932   1.404       .  A
C931        H944   1.083       .  S
C932        C935   1.491       .  S
C932        C933   1.407   1_556  A
C933        C934   1.400       .  A
C933        H945   1.082       .  S
C934        H946   1.082       .  S
C935        H947   1.086       .  S
C935        C936   1.349       .  D
C936        H948   1.086       .  S
C936        C937   1.490       .  S
C937        C938   1.404       .  A
C937        C942   1.408       .  A
C938        C939   1.400       .  A
C938        H949   1.083       .  S
C939        C940   1.406       .  A
C939        H950   1.083       .  S
C940        C941   1.406       .  A
C941        C942   1.402       .  A
C941        H951   1.083       .  S
C942        H952   1.082   1_556  S
C953        C954   1.404       .  A
C953        C958   1.403   1_554  A
C954        C955   1.396       .  A
C954        H967   1.083       .  S
C955        C956   1.404       .  A
C955        H968   1.083       .  S
C956        C959   1.491   1_545  S
C956        C957   1.411   1_554  A
C957        C958   1.402       .  A
C957        H969   1.080       .  S
C958        H970   1.083       .  S
C959        H971   1.083       .  S
C959        C960   1.349   1_554  D
C960        H972   1.084       .  S
C960        C961   1.493       .  S
C961        C962   1.403       .  A
C961        C966   1.411   1_556  A
C962        C963   1.397       .  A
C962        H973   1.084       .  S
C963        C964   1.408       .  A
C963        H974   1.082       .  S
C964        C965   1.404   1_556  A
C965        C966   1.401       .  A
C965        H975   1.080       .  S
C966        H976   1.080       .  S
C977        C978   1.405       .  A
C977        C982   1.407       .  A
C978        C979   1.394       .  A
C978        H991   1.083       .  S
C979        C980   1.402       .  A
C979        H992   1.084       .  S
C980        C983   1.485       .  S
C980        C981   1.408       .  A
C981        C982   1.403       .  A
C981        H993   1.082       .  S
C982        H994   1.083       .  S
C983        H995   1.085       .  S
C983        C984   1.348       .  D
C984        H996   1.085       .  S
C984        C985   1.489       .  S
C985        C986   1.402       .  A
C985        C990   1.405       .  A
C986        C987   1.401       .  A
C986        H997   1.083       .  S
C987        C988   1.410       .  A
C987        H998   1.083       .  S
C988        C989   1.411       .  A
C989        C990   1.396       .  A
C989        H999   1.076       .  S
C990       H1000   1.082       .  S
C1001      C1002   1.406       .  A
C1001      C1006   1.408       .  A
C1002      C1003   1.397       .  A
C1002      H1015   1.083       .  S
C1003      C1004   1.403       .  A
C1003      H1016   1.083       .  S
C1004      C1007   1.488       .  S
C1004      C1005   1.408       .  A
C1005      C1006   1.403       .  A
C1005      H1017   1.082       .  S
C1006      H1018   1.083       .  S
C1007      H1019   1.086       .  S
C1007      C1008   1.349       .  D
C1008      H1020   1.086       .  S
C1008      C1009   1.490       .  S
C1009      C1010   1.405       .  A
C1009      C1014   1.406       .  A
C1010      C1011   1.403       .  A
C1010      H1021   1.083       .  S
C1011      C1012   1.405       .  A
C1011      H1022   1.083       .  S
C1012      C1013   1.406       .  A
C1013      C1014   1.397       .  A
C1013      H1023   1.083       .  S
C1014      H1024   1.082       .  S
C1025      C1026   1.407       .  A
C1025      C1030   1.406       .  A
C1026      C1027   1.399       .  A
C1026      H1039   1.083       .  S
C1027      C1028   1.402       .  A
C1027      H1040   1.083       .  S
C1028      C1031   1.486       .  S
C1028      C1029   1.407       .  A
C1029      C1030   1.401       .  A
C1029      H1041   1.082       .  S
C1030      H1042   1.083       .  S
C1031      H1043   1.086       .  S
C1031      C1032   1.347       .  D
C1032      H1044   1.086       .  S
C1032      C1033   1.487       .  S
C1033      C1034   1.402       .  A
C1033      C1038   1.405       .  A
C1034      C1035   1.400       .  A
C1034      H1045   1.083       .  S
C1035      C1036   1.410       .  A
C1035      H1046   1.077       .  S
C1036      C1037   1.411       .  A
C1037      C1038   1.398       .  A
C1037      H1047   1.083       .  S
C1038      H1048   1.082       .  S
C1049      C1050   1.406       .  A
C1049      C1054   1.406       .  A
C1050      C1051   1.399       .  A
C1050      H1063   1.083       .  S
C1051      C1052   1.404       .  A
C1051      H1064   1.083       .  S
C1052      C1055   1.491       .  S
C1052      C1053   1.409       .  A
C1053      C1054   1.402       .  A
C1053      H1065   1.081       .  S
C1054      H1066   1.083       .  S
C1055      H1067   1.085       .  S
C1055      C1056   1.349       .  D
C1056      H1068   1.085       .  S
C1056      C1057   1.491       .  S
C1057      C1058   1.403       .  A
C1057      C1062   1.411       .  A
C1058      C1059   1.397       .  A
C1058      H1069   1.083       .  S
C1059      C1060   1.405       .  A
C1059      H1070   1.083       .  S
C1060      C1061   1.404       .  A
C1061      C1062   1.404       .  A
C1061      H1071   1.083       .  S
C1062      H1072   1.081       .  S
C1073      C1074   1.411       .  A
C1073      C1078   1.410       .  A
C1074      C1075   1.398       .  A
C1074      H1087   1.083       .  S
C1075      C1076   1.400       .  A
C1075      H1088   1.083       .  S
C1076      C1079   1.486       .  S
C1076      C1077   1.406       .  A
C1077      C1078   1.401       .  A
C1077      H1089   1.083       .  S
C1078      H1090   1.078       .  S
C1079      H1091   1.086       .  S
C1079      C1080   1.345       .  D
C1080      H1092   1.087       .  S
C1080      C1081   1.485       .  S
C1081      C1082   1.401       .  A
C1081      C1086   1.407       .  A
C1082      C1083   1.397       .  A
C1082      H1093   1.083       .  S
C1083      C1084   1.406       .  A
C1083      H1094   1.083       .  S
C1084      C1085   1.408       .  A
C1085      C1086   1.404       .  A
C1085      H1095   1.083       .  S
C1086      H1096   1.083       .  S
C1097      C1098   1.407       .  A
C1097      C1102   1.406       .  A
C1098      C1099   1.393       .  A
C1098      H1111   1.082       .  S
C1099      C1100   1.400       .  A
C1099      H1112   1.084       .  S
C1100      C1103   1.489       .  S
C1100      C1101   1.411       .  A
C1101      C1102   1.408       .  A
C1101      H1113   1.082       .  S
C1102      H1114   1.083       .  S
C1103      H1115   1.086       .  S
C1103      C1104   1.347       .  D
C1104      H1116   1.085       .  S
C1104      C1105   1.492       .  S
C1105      C1106   1.404       .  A
C1105      C1110   1.408       .  A
C1106      C1107   1.402       .  A
C1106      H1117   1.083       .  S
C1107      C1108   1.407       .  A
C1107      H1118   1.083       .  S
C1108      C1109   1.406       .  A
C1109      C1110   1.398       .  A
C1109      H1119   1.083       .  S
C1110      H1120   1.082       .  S
C1121      C1122   1.405       .  A
C1121      C1126   1.407       .  A
C1122      C1123   1.403       .  A
C1122      H1135   1.083       .  S
C1123      C1124   1.405       .  A
C1123      H1136   1.083       .  S
C1124      C1127   1.489       .  S
C1124      C1125   1.406       .  A
C1125      C1126   1.396       .  A
C1125      H1137   1.082       .  S
C1126      H1138   1.083       .  S
C1127      H1139   1.086       .  S
C1127      C1128   1.348       .  D
C1128      H1140   1.086       .  S
C1128      C1129   1.486       .  S
C1129      C1130   1.402       .  A
C1129      C1134   1.407       .  A
C1130      C1131   1.396       .  A
C1130      H1141   1.083       .  S
C1131      C1132   1.406       .  A
C1131      H1142   1.083       .  S
C1132      C1133   1.409       .  A
C1133      C1134   1.403       .  A
C1133      H1143   1.083       .  S
C1134      H1144   1.082       .  S
C1145      C1146   1.404       .  A
C1145      C1150   1.405       .  A
C1146      C1147   1.393       .  A
C1146      H1159   1.083       .  S
C1147      C1148   1.402       .  A
C1147      H1160   1.084       .  S
C1148      C1151   1.485       .  S
C1148      C1149   1.409       .  A
C1149      C1150   1.403       .  A
C1149      H1161   1.081       .  S
C1150      H1162   1.083       .  S
C1151      H1163   1.086       .  S
C1151      C1152   1.347       .  D
C1152      H1164   1.085       .  S
C1152      C1153   1.487       .  S
C1153      C1154   1.401       .  A
C1153      C1158   1.405       .  A
C1154      C1155   1.399       .  A
C1154      H1165   1.083       .  S
C1155      C1156   1.410       .  A
C1155      H1166   1.083       .  S
C1156      C1157   1.410       .  A
C1157      C1158   1.396       .  A
C1157      H1167   1.076       .  S
C1158      H1168   1.082       .  S
C1169      C1170   1.409       .  A
C1169      C1174   1.410       .  A
C1170      C1171   1.398       .  A
C1170      H1183   1.083       .  S
C1171      C1172   1.403       .  A
C1171      H1184   1.083       .  S
C1172      C1175   1.494       .  S
C1172      C1173   1.408       .  A
C1173      C1174   1.399       .  A
C1173      H1185   1.079       .  S
C1174      H1186   1.076       .  S
C1175      H1187   1.086       .  S
C1175      C1176   1.349       .  D
C1176      H1188   1.083       .  S
C1176      C1177   1.487       .  S
C1177      C1178   1.402       .  A
C1177      C1182   1.408       .  A
C1178      C1179   1.396       .  A
C1178      H1189   1.084       .  S
C1179      C1180   1.407       .  A
C1179      H1190   1.083       .  S
C1180      C1181   1.406       .  A
C1181      C1182   1.402       .  A
C1181      H1191   1.083       .  S
C1182      H1192   1.082       .  S
C1193      C1194   1.410       .  A
C1193      C1198   1.410       .  A
C1194      C1195   1.395       .  A
C1194      H1207   1.075       .  S
C1195      C1196   1.402       .  A
C1195      H1208   1.084       .  S
C1196      C1199   1.489       .  S
C1196      C1197   1.407       .  A
C1197      C1198   1.400       .  A
C1197      H1209   1.080       .  S
C1198      H1210   1.083       .  S
C1199      H1211   1.085       .  S
C1199      C1200   1.349       .  D
C1200      H1212   1.083       .  S
C1200      C1201   1.488       .  S
C1201      C1202   1.405       .  A
C1201      C1206   1.407       .  A
C1202      C1203   1.402       .  A
C1202      H1213   1.083       .  S
C1203      C1204   1.405       .  A
C1203      H1214   1.083       .  S
C1204      C1205   1.406       .  A
C1205      C1206   1.393       .  A
C1205      H1215   1.083       .  S
C1206      H1216   1.081       .  S
C1217      C1218   1.404       .  A
C1217      C1222   1.402       .  A
C1218      C1219   1.403       .  A
C1218      H1231   1.083       .  S
C1219      C1220   1.405       .  A
C1219      H1232   1.083       .  S
C1220      C1223   1.487       .  S
C1220      C1221   1.407       .  A
C1221      C1222   1.394       .  A
C1221      H1233   1.082       .  S
C1222      H1234   1.083       .  S
C1223      H1235   1.086       .  S
C1223      C1224   1.345       .  D
C1224      H1236   1.087       .  S
C1224      C1225   1.483       .  S
C1225      C1226   1.399       .  A
C1225      C1230   1.410       .  A
C1226      C1227   1.390       .  A
C1226      H1237   1.084       .  S
C1227      C1228   1.407       .  A
C1227      H1238   1.083       .  S
C1228      C1229   1.407       .  A
C1229      C1230   1.407       .  A
C1229      H1239   1.083       .  S
C1230      H1240   1.082       .  S
C1241      C1242   1.406       .  A
C1241      C1246   1.409       .  A
C1242      C1243   1.395       .  A
C1242      H1255   1.083       .  S
C1243      C1244   1.403       .  A
C1243      H1256   1.084       .  S
C1244      C1247   1.495       .  S
C1244      C1245   1.411       .  A
C1245      C1246   1.409       .  A
C1245      H1257   1.081       .  S
C1246      H1258   1.083       .  S
C1247      H1259   1.084       .  S
C1247      C1248   1.351       .  D
C1248      H1260   1.084       .  S
C1248      C1249   1.498       .  S
C1249      C1250   1.404       .  A
C1249      C1254   1.408       .  A
C1250      C1251   1.403       .  A
C1250      H1261   1.083       .  S
C1251      C1252   1.411       .  A
C1251      H1262   1.083       .  S
C1252      C1253   1.411       .  A
C1253      C1254   1.399       .  A
C1253      H1263   1.076       .  S
C1254      H1264   1.081       .  S
C1265      C1266   1.408       .  A
C1265      C1270   1.407       .  A
C1266      C1267   1.397       .  A
C1266      H1279   1.082       .  S
C1267      C1268   1.401       .  A
C1267      H1280   1.084       .  S
C1268      C1271   1.485       .  S
C1268      C1269   1.407       .  A
C1269      C1270   1.403       .  A
C1269      H1281   1.082       .  S
C1270      H1282   1.082       .  S
C1271      H1283   1.087       .  S
C1271      C1272   1.345       .  D
C1272      H1284   1.086       .  S
C1272      C1273   1.484       .  S
C1273      C1274   1.401       .  A
C1273      C1278   1.407       .  A
C1274      C1275   1.399       .  A
C1274      H1285   1.083       .  S
C1275      C1276   1.407       .  A
C1275      H1286   1.083       .  S
C1276      C1277   1.404       .  A
C1277      C1278   1.402       .  A
C1277      H1287   1.083       .  S
C1278      H1288   1.083       .  S
C1289      C1290   1.407       .  A
C1289      C1294   1.406       .  A
C1290      C1291   1.399       .  A
C1290      H1303   1.083       .  S
C1291      C1292   1.403       .  A
C1291      H1304   1.083       .  S
C1292      C1295   1.487       .  S
C1292      C1293   1.407       .  A
C1293      C1294   1.400       .  A
C1293      H1305   1.082       .  S
C1294      H1306   1.083       .  S
C1295      H1307   1.086       .  S
C1295      C1296   1.346       .  D
C1296      H1308   1.086       .  S
C1296      C1297   1.486       .  S
C1297      C1298   1.400       .  A
C1297      C1302   1.405       .  A
C1298      C1299   1.397       .  A
C1298      H1309   1.084       .  S
C1299      C1300   1.412       .  A
C1299      H1310   1.076       .  S
C1300      C1301   1.411       .  A
C1301      C1302   1.401       .  A
C1301      H1311   1.083       .  S
C1302      H1312   1.082       .  S
C1313      C1314   1.410       .  A
C1313      C1318   1.411       .  A
C1314      C1315   1.399       .  A
C1314      H1327   1.080       .  S
C1315      C1316   1.402       .  A
C1315      H1328   1.083       .  S
C1316      C1319   1.486       .  S
C1316      C1317   1.404       .  A
C1317      C1318   1.398       .  A
C1317      H1329   1.082       .  S
C1318      H1330   1.082       .  S
C1319      H1331   1.086       .  S
C1319      C1320   1.347       .  D
C1320      H1332   1.086       .  S
C1320      C1321   1.486       .  S
C1321      C1322   1.403       .  A
C1321      C1326   1.407       .  A
C1322      C1323   1.399       .  A
C1322      H1333   1.083       .  S
C1323      C1324   1.407       .  A
C1323      H1334   1.083       .  S
C1324      C1325   1.406       .  A
C1325      C1326   1.400       .  A
C1325      H1335   1.083       .  S
C1326      H1336   1.082       .  S
C1337      C1338   1.407       .  A
C1337      C1342   1.406       .  A
C1338      C1339   1.405       .  A
C1338      H1351   1.082       .  S
C1339      C1340   1.405       .  A
C1339      H1352   1.083       .  S
C1340      C1343   1.494       .  S
C1340      C1341   1.408       .  A
C1341      C1342   1.396       .  A
C1341      H1353   1.082       .  S
C1342      H1354   1.082       .  S
C1343      H1355   1.085   1_565  S
C1343      C1344   1.349   1_565  D
C1344      H1356   1.086       .  S
C1344      C1345   1.489       .  S
C1345      C1346   1.401       .  A
C1345      C1350   1.410       .  A
C1346      C1347   1.392       .  A
C1346      H1357   1.084       .  S
C1347      C1348   1.406       .  A
C1347      H1358   1.082       .  S
C1348      C1349   1.407       .  A
C1349      C1350   1.408       .  A
C1349      H1359   1.083       .  S
C1350      H1360   1.081       .  S
C1361      C1362   1.402       .  A
C1361      C1366   1.408       .  A
C1362      C1363   1.402       .  A
C1362      H1375   1.082       .  S
C1363      C1364   1.408       .  A
C1363      H1376   1.083       .  S
C1364      C1367   1.492       .  S
C1364      C1365   1.406       .  A
C1365      C1366   1.397       .  A
C1365      H1377   1.080       .  S
C1366      H1378   1.083       .  S
C1367      H1379   1.085       .  S
C1367      C1368   1.353       .  D
C1368      H1380   1.084       .  S
C1368      C1369   1.491       .  S
C1369      C1370   1.407       .  A
C1369      C1374   1.405       .  A
C1370      C1371   1.405       .  A
C1370      H1381   1.083       .  S
C1371      C1372   1.407       .  A
C1371      H1382   1.083       .  S
C1372      C1373   1.407       .  A
C1373      C1374   1.395       .  A
C1373      H1383   1.083       .  S
C1374      H1384   1.082       .  S
C1385      C1386   1.410       .  A
C1385      C1390   1.410       .  A
C1386      C1387   1.397       .  A
C1386      H1399   1.083       .  S
C1387      C1388   1.400       .  A
C1387      H1400   1.083       .  S
C1388      C1391   1.487       .  S
C1388      C1389   1.407       .  A
C1389      C1390   1.399       .  A
C1389      H1401   1.082       .  S
C1390      H1402   1.077       .  S
C1391      H1403   1.084       .  S
C1391      C1392   1.347       .  D
C1392      H1404   1.086       .  S
C1392      C1393   1.488       .  S
C1393      C1394   1.401       .  A
C1393      C1398   1.411       .  A
C1394      C1395   1.393       .  A
C1394      H1405   1.084       .  S
C1395      C1396   1.406       .  A
C1395      H1406   1.083       .  S
C1396      C1397   1.406       .  A
C1397      C1398   1.404       .  A
C1397      H1407   1.083       .  S
C1398      H1408   1.081       .  S
C1409      C1410   1.405       .  A
C1409      C1414   1.405       .  A
C1410      C1411   1.397       .  A
C1410      H1423   1.083       .  S
C1411      C1412   1.403       .  A
C1411      H1424   1.083       .  S
C1412      C1415   1.487       .  S
C1412      C1413   1.408       .  A
C1413      C1414   1.401       .  A
C1413      H1425   1.082       .  S
C1414      H1426   1.083       .  S
C1415      H1427   1.085       .  S
C1415      C1416   1.349       .  D
C1416      H1428   1.086       .  S
C1416      C1417   1.490       .  S
C1417      C1418   1.405       .  A
C1417      C1422   1.407       .  A
C1418      C1419   1.401       .  A
C1418      H1429   1.083       .  S
C1419      C1420   1.405       .  A
C1419      H1430   1.083       .  S
C1420      C1421   1.406       .  A
C1421      C1422   1.398       .  A
C1421      H1431   1.083       .  S
C1422      H1432   1.081       .  S
C1433      C1434   1.407       .  A
C1433      C1438   1.408       .  A
C1434      C1435   1.395       .  A
C1434      H1447   1.083       .  S
C1435      C1436   1.401       .  A
C1435      H1448   1.084       .  S
C1436      C1439   1.487       .  S
C1436      C1437   1.409       .  A
C1437      C1438   1.405       .  A
C1437      H1449   1.082       .  S
C1438      H1450   1.083       .  S
C1439      H1451   1.086       .  S
C1439      C1440   1.347       .  D
C1440      H1452   1.086       .  S
C1440      C1441   1.489       .  S
C1441      C1442   1.402       .  A
C1441      C1446   1.405       .  A
C1442      C1443   1.400       .  A
C1442      H1453   1.083       .  S
C1443      C1444   1.410       .  A
C1443      H1454   1.083       .  S
C1444      C1445   1.412       .  A
C1445      C1446   1.399       .  A
C1445      H1455   1.077       .  S
C1446      H1456   1.082       .  S
C1457      C1458   1.401       .  A
C1457      C1462   1.403       .  A
C1458      C1459   1.398       .  A
C1458      H1471   1.083       .  S
C1459      C1460   1.405       .  A
C1459      H1472   1.083       .  S
C1460      C1463   1.489       .  S
C1460      C1461   1.409       .  A
C1461      C1462   1.403       .  A
C1461      H1473   1.082       .  S
C1462      H1474   1.083       .  S
C1463      H1475   1.085       .  S
C1463      C1464   1.350       .  D
C1464      H1476   1.086       .  S
C1464      C1465   1.493       .  S
C1465      C1466   1.406       .  A
C1465      C1470   1.407       .  A
C1466      C1467   1.404       .  A
C1466      H1477   1.083       .  S
C1467      C1468   1.406       .  A
C1467      H1478   1.083       .  S
C1468      C1469   1.408       .  A
C1469      C1470   1.398       .  A
C1469      H1479   1.083       .  S
C1470      H1480   1.082       .  S
C1481      C1482   1.405       .  A
C1481      C1486   1.403       .  A
C1482      C1483   1.398       .  A
C1482      H1495   1.083       .  S
C1483      C1484   1.403       .  A
C1483      H1496   1.083       .  S
C1484      C1487   1.491       .  S
C1484      C1485   1.410       .  A
C1485      C1486   1.401       .  A
C1485      H1497   1.082       .  S
C1486      H1498   1.083       .  S
C1487      H1499   1.083       .  S
C1487      C1488   1.349       .  D
C1488      H1500   1.085       .  S
C1488      C1489   1.494       .  S
C1489      C1490   1.404       .  A
C1489      C1494   1.410       .  A
C1490      C1491   1.397       .  A
C1490      H1501   1.083       .  S
C1491      C1492   1.405       .  A
C1491      H1502   1.082       .  S
C1492      C1493   1.407       .  A
C1493      C1494   1.402       .  A
C1493      H1503   1.082       .  S
C1494      H1504   1.080       .  S
C1505      C1506   1.404       .  A
C1505      C1510   1.405       .  A
C1506      C1507   1.394       .  A
C1506      H1519   1.083       .  S
C1507      C1508   1.403       .  A
C1507      H1520   1.084       .  S
C1508      C1511   1.491       .  S
C1508      C1509   1.411       .  A
C1509      C1510   1.407       .  A
C1509      H1521   1.081       .  S
C1510      H1522   1.083       .  S
C1511      H1523   1.085   1_565  S
C1511      C1512   1.350   1_565  D
C1512      H1524   1.084       .  S
C1512      C1513   1.494       .  S
C1513      C1514   1.405       .  A
C1513      C1518   1.407       .  A
C1514      C1515   1.405       .  A
C1514      H1525   1.083       .  S
C1515      C1516   1.407       .  A
C1515      H1526   1.081       .  S
C1516      C1517   1.408       .  A
C1517      C1518   1.396       .  A
C1517      H1527   1.081       .  S
C1518      H1528   1.082       .  S
C1529      C1530   1.404       .  A
C1529      C1534   1.403       .  A
C1530      C1531   1.397       .  A
C1530      H1543   1.083       .  S
C1531      C1532   1.404       .  A
C1531      H1544   1.083       .  S
C1532      C1535   1.490       .  S
C1532      C1533   1.410       .  A
C1533      C1534   1.402       .  A
C1533      H1545   1.081       .  S
C1534      H1546   1.083       .  S
C1535      H1547   1.085       .  S
C1535      C1536   1.349       .  D
C1536      H1548   1.084       .  S
C1536      C1537   1.490       .  S
C1537      C1538   1.405       .  A
C1537      C1542   1.407       .  A
C1538      C1539   1.401       .  A
C1538      H1549   1.083       .  S
C1539      C1540   1.406       .  A
C1539      H1550   1.083       .  S
C1540      C1541   1.408       .  A
C1541      C1542   1.399       .  A
C1541      H1551   1.083       .  S
C1542      H1552   1.082       .  S
C1553      C1554   1.405       .  A
C1553      C1558   1.405       .  A
C1554      C1555   1.393       .  A
C1554      H1567   1.083       .  S
C1555      C1556   1.402       .  A
C1555      H1568   1.084       .  S
C1556      C1559   1.490       .  S
C1556      C1557   1.412       .  A
C1557      C1558   1.405       .  A
C1557      H1569   1.080       .  S
C1558      H1570   1.083       .  S
C1559      H1571   1.085       .  S
C1559      C1560   1.347       .  D
C1560      H1572   1.084       .  S
C1560      C1561   1.490       .  S
C1561      C1562   1.400       .  A
C1561      C1566   1.408       .  A
C1562      C1563   1.397       .  A
C1562      H1573   1.083       .  S
C1563      C1564   1.410       .  A
C1563      H1574   1.083       .  S
C1564      C1565   1.409       .  A
C1565      C1566   1.400       .  A
C1565      H1575   1.077       .  S
C1566      H1576   1.082       .  S
C1577      C1578   1.409       .  A
C1577      C1582   1.412       .  A
C1578      C1579   1.398       .  A
C1578      H1591   1.083       .  S
C1579      C1580   1.403       .  A
C1579      H1592   1.083       .  S
C1580      C1583   1.495       .  S
C1580      C1581   1.408       .  A
C1581      C1582   1.404       .  A
C1581      H1593   1.081       .  S
C1582      H1594   1.077       .  S
C1583      H1595   1.085       .  S
C1583      C1584   1.351       .  D
C1584      H1596   1.085       .  S
C1584      C1585   1.495       .  S
C1585      C1586   1.406       .  A
C1585      C1590   1.408       .  A
C1586      C1587   1.404       .  A
C1586      H1597   1.083       .  S
C1587      C1588   1.407       .  A
C1587      H1598   1.083       .  S
C1588      C1589   1.407       .  A
C1589      C1590   1.400       .  A
C1589      H1599   1.083       .  S
C1590      H1600   1.081       .  S
C1601      C1602   1.404       .  A
C1601      C1606   1.405       .  A
C1602      C1603   1.394       .  A
C1602      H1615   1.083       .  S
C1603      C1604   1.403       .  A
C1603      H1616   1.084       .  S
C1604      C1607   1.494       .  S
C1604      C1605   1.412       .  A
C1605      C1606   1.408       .  A
C1605      H1617   1.081       .  S
C1606      H1618   1.083       .  S
C1607      H1619   1.085       .  S
C1607      C1608   1.350   1_556  D
C1608      H1620   1.084   1_554  S
C1608      C1609   1.496       .  S
C1609      C1610   1.405       .  A
C1609      C1614   1.409       .  A
C1610      C1611   1.403       .  A
C1610      H1621   1.083       .  S
C1611      C1612   1.406       .  A
C1611      H1622   1.082       .  S
C1612      C1613   1.406       .  A
C1613      C1614   1.399       .  A
C1613      H1623   1.082       .  S
C1614      H1624   1.081       .  S
C1625      C1626   1.409       .  A
C1625      C1630   1.408       .  A
C1626      C1627   1.398       .  A
C1626      H1639   1.081       .  S
C1627      C1628   1.402       .  A
C1627      H1640   1.083       .  S
C1628      C1631   1.490       .  S
C1628      C1629   1.407       .  A
C1629      C1630   1.403       .  A
C1629      H1641   1.082       .  S
C1630      H1642   1.079       .  S
C1631      H1643   1.086       .  S
C1631      C1632   1.347       .  D
C1632      H1644   1.086       .  S
C1632      C1633   1.489       .  S
C1633      C1634   1.402       .  A
C1633      C1638   1.409       .  A
C1634      C1635   1.399       .  A
C1634      H1645   1.083       .  S
C1635      C1636   1.407       .  A
C1635      H1646   1.083       .  S
C1636      C1637   1.405       .  A
C1637      C1638   1.403       .  A
C1637      H1647   1.083       .  S
C1638      H1648   1.082       .  S
C1649      C1650   1.407       .  A
C1649      C1654   1.408       .  A
C1650      C1651   1.393       .  A
C1650      H1663   1.083       .  S
C1651      C1652   1.401       .  A
C1651      H1664   1.084       .  S
C1652      C1655   1.491       .  S
C1652      C1653   1.411       .  A
C1653      C1654   1.408       .  A
C1653      H1665   1.081       .  S
C1654      H1666   1.083       .  S
C1655      H1667   1.085       .  S
C1655      C1656   1.349       .  D
C1656      H1668   1.085       .  S
C1656      C1657   1.493       .  S
C1657      C1658   1.402       .  A
C1657      C1662   1.407       .  A
C1658      C1659   1.402       .  A
C1658      H1669   1.083       .  S
C1659      C1660   1.412       .  A
C1659      H1670   1.083       .  S
C1660      C1661   1.410       .  A
C1661      C1662   1.399       .  A
C1661      H1671   1.077       .  S
C1662      H1672   1.082       .  S
C1673      C1674   1.403       .  A
C1673      C1678   1.405       .  A
C1674      C1675   1.399       .  A
C1674      H1687   1.080       .  S
C1675      C1676   1.404       .  A
C1675      H1688   1.083       .  S
C1676      C1679   1.485       .  S
C1676      C1677   1.407       .  A
C1677      C1678   1.398       .  A
C1677      H1689   1.082       .  S
C1678      H1690   1.083       .  S
C1679      H1691   1.086       .  S
C1679      C1680   1.347       .  D
C1680      H1692   1.086       .  S
C1680      C1681   1.485       .  S
C1681      C1682   1.404       .  A
C1681      C1686   1.407       .  A
C1682      C1683   1.399       .  A
C1682      H1693   1.083       .  S
C1683      C1684   1.404       .  A
C1683      H1694   1.083       .  S
C1684      C1685   1.406       .  A
C1685      C1686   1.398       .  A
C1685      H1695   1.083       .  S
C1686      H1696   1.082       .  S
C1697      C1698   1.406       .  A
C1697      C1702   1.407       .  A
C1698      C1699   1.398       .  A
C1698      H1711   1.083       .  S
C1699      C1700   1.405       .  A
C1699      H1712   1.083       .  S
C1700      C1703   1.498       .  S
C1700      C1701   1.411       .  A
C1701      C1702   1.405       .  A
C1701      H1713   1.080       .  S
C1702      H1714   1.083       .  S
C1703      H1715   1.084       .  S
C1703      C1704   1.352       .  D
C1704      H1716   1.083       .  S
C1704      C1705   1.496       .  S
C1705      C1706   1.407       .  A
C1705      C1710   1.409       .  A
C1706      C1707   1.403       .  A
C1706      H1717   1.083       .  S
C1707      C1708   1.404       .  A
C1707      H1718   1.083       .  S
C1708      C1709   1.406       .  A
C1709      C1710   1.399       .  A
C1709      H1719   1.083       .  S
C1710      H1720   1.081       .  S
C1721      C1722   1.407       .  A
C1721      C1726   1.407       .  A
C1722      C1723   1.402       .  A
C1722      H1735   1.083       .  S
C1723      C1724   1.405       .  A
C1723      H1736   1.083       .  S
C1724      C1727   1.491       .  S
C1724      C1725   1.407       .  A
C1725      C1726   1.399       .  A
C1725      H1737   1.082       .  S
C1726      H1738   1.083       .  S
C1727      H1739   1.086       .  S
C1727      C1728   1.349       .  D
C1728      H1740   1.086       .  S
C1728      C1729   1.489       .  S
C1729      C1730   1.403       .  A
C1729      C1734   1.405       .  A
C1730      C1731   1.400       .  A
C1730      H1741   1.083       .  S
C1731      C1732   1.410       .  A
C1731      H1742   1.077       .  S
C1732      C1733   1.411       .  A
C1733      C1734   1.400       .  A
C1733      H1743   1.083       .  S
C1734      H1744   1.082       .  S
C1745      C1746   1.406       .  A
C1745      C1750   1.406       .  A
C1746      C1747   1.400       .  A
C1746      H1759   1.082       .  S
C1747      C1748   1.404       .  A
C1747      H1760   1.083       .  S
C1748      C1751   1.493       .  S
C1748      C1749   1.409       .  A
C1749      C1750   1.400       .  A
C1749      H1761   1.081       .  S
C1750      H1762   1.082       .  S
C1751      H1763   1.084       .  S
C1751      C1752   1.349       .  D
C1752      H1764   1.085       .  S
C1752      C1753   1.492       .  S
C1753      C1754   1.403       .  A
C1753      C1758   1.411       .  A
C1754      C1755   1.396       .  A
C1754      H1765   1.084       .  S
C1755      C1756   1.405       .  A
C1755      H1766   1.083       .  S
C1756      C1757   1.404       .  A
C1757      C1758   1.405       .  A
C1757      H1767   1.083       .  S
C1758      H1768   1.081       .  S
C1769      C1770   1.404       .  A
C1769      C1774   1.406       .  A
C1770      C1771   1.404       .  A
C1770      H1783   1.083       .  S
C1771      C1772   1.407       .  A
C1771      H1784   1.083       .  S
C1772      C1775   1.497   1_556  S
C1772      C1773   1.409       .  A
C1773      C1774   1.400       .  A
C1773      H1785   1.081       .  S
C1774      H1786   1.083       .  S
C1775      H1787   1.085       .  S
C1775      C1776   1.351       .  D
C1776      H1788   1.085       .  S
C1776      C1777   1.493       .  S
C1777      C1778   1.404       .  A
C1777      C1782   1.408       .  A
C1778      C1779   1.399       .  A
C1778      H1789   1.083       .  S
C1779      C1780   1.406       .  A
C1779      H1790   1.082       .  S
C1780      C1781   1.409       .  A
C1781      C1782   1.404       .  A
C1781      H1791   1.082       .  S
C1782      H1792   1.082       .  S
C1793      C1794   1.407       .  A
C1793      C1798   1.410       .  A
C1794      C1795   1.395       .  A
C1794      H1807   1.083       .  S
C1795      C1796   1.402       .  A
C1795      H1808   1.083       .  S
C1796      C1799   1.488       .  S
C1796      C1797   1.407       .  A
C1797      C1798   1.397       .  A
C1797      H1809   1.080       .  S
C1798      H1810   1.076       .  S
C1799      H1811   1.084       .  S
C1799      C1800   1.349       .  D
C1800      H1812   1.083       .  S
C1800      C1801   1.486       .  S
C1801      C1802   1.404       .  A
C1801      C1806   1.408       .  A
C1802      C1803   1.398       .  A
C1802      H1813   1.083       .  S
C1803      C1804   1.406       .  A
C1803      H1814   1.083       .  S
C1804      C1805   1.405       .  A
C1805      C1806   1.396       .  A
C1805      H1815   1.083       .  S
C1806      H1816   1.081       .  S
C1817      C1818   1.406       .  A
C1817      C1822   1.405       .  A
C1818      C1819   1.395       .  A
C1818      H1831   1.083       .  S
C1819      C1820   1.402       .  A
C1819      H1832   1.084       .  S
C1820      C1823   1.490       .  S
C1820      C1821   1.411       .  A
C1821      C1822   1.403       .  A
C1821      H1833   1.081       .  S
C1822      H1834   1.083       .  S
C1823      H1835   1.086       .  S
C1823      C1824   1.346       .  D
C1824      H1836   1.084       .  S
C1824      C1825   1.488       .  S
C1825      C1826   1.401       .  A
C1825      C1830   1.410       .  A
C1826      C1827   1.396       .  A
C1826      H1837   1.083       .  S
C1827      C1828   1.406       .  A
C1827      H1838   1.083       .  S
C1828      C1829   1.403       .  A
C1829      C1830   1.402       .  A
C1829      H1839   1.082       .  S
C1830      H1840   1.082       .  S
C1841      C1842   1.408       .  A
C1841      C1846   1.410       .  A
C1842      C1843   1.396       .  A
C1842      H1855   1.083       .  S
C1843      C1844   1.402       .  A
C1843      H1856   1.083       .  S
C1844      C1847   1.489       .  S
C1844      C1845   1.408       .  A
C1845      C1846   1.400       .  A
C1845      H1857   1.080       .  S
C1846      H1858   1.079       .  S
C1847      H1859   1.085       .  S
C1847      C1848   1.348       .  D
C1848      H1860   1.084       .  S
C1848      C1849   1.487       .  S
C1849      C1850   1.403       .  A
C1849      C1854   1.408       .  A
C1850      C1851   1.398       .  A
C1850      H1861   1.083       .  S
C1851      C1852   1.406       .  A
C1851      H1862   1.083       .  S
C1852      C1853   1.406       .  A
C1853      C1854   1.399       .  A
C1853      H1863   1.083       .  S
C1854      H1864   1.082       .  S
C1865      C1866   1.404       .  A
C1865      C1870   1.408       .  A
C1866      C1867   1.402       .  A
C1866      H1879   1.082       .  S
C1867      C1868   1.407       .  A
C1867      H1880   1.083       .  S
C1868      C1871   1.496       .  S
C1868      C1869   1.408       .  A
C1869      C1870   1.398       .  A
C1869      H1881   1.080       .  S
C1870      H1882   1.082       .  S
C1871      H1883   1.082       .  S
C1871      C1872   1.354   1_455  D
C1872      H1884   1.083       .  S
C1872      C1873   1.498       .  S
C1873      C1874   1.408       .  A
C1873      C1878   1.409       .  A
C1874      C1875   1.402       .  A
C1874      H1885   1.083       .  S
C1875      C1876   1.403       .  A
C1875      H1886   1.082       .  S
C1876      C1877   1.407       .  A
C1877      C1878   1.398       .  A
C1877      H1887   1.082       .  S
C1878      H1888   1.079       .  S
C1889      C1890   1.410       .  A
C1889      C1894   1.408       .  A
C1890      C1891   1.395       .  A
C1890      H1903   1.083       .  S
C1891      C1892   1.398       .  A
C1891      H1904   1.083       .  S
C1892      C1895   1.482       .  S
C1892      C1893   1.407       .  A
C1893      C1894   1.399       .  A
C1893      H1905   1.082       .  S
C1894      H1906   1.077       .  S
C1895      H1907   1.084       .  S
C1895      C1896   1.344       .  D
C1896      H1908   1.087       .  S
C1896      C1897   1.486       .  S
C1897      C1898   1.400       .  A
C1897      C1902   1.412       .  A
C1898      C1899   1.391       .  A
C1898      H1909   1.084       .  S
C1899      C1900   1.407       .  A
C1899      H1910   1.083       .  S
C1900      C1901   1.405       .  A
C1901      C1902   1.404       .  A
C1901      H1911   1.083       .  S
C1902      H1912   1.080       .  S
C1913      C1914   1.405       .  A
C1913      C1918   1.405       .  A
C1914      C1915   1.393       .  A
C1914      H1927   1.083       .  S
C1915      C1916   1.401       .  A
C1915      H1928   1.084       .  S
C1916      C1919   1.487       .  S
C1916      C1917   1.410       .  A
C1917      C1918   1.404       .  A
C1917      H1929   1.081       .  S
C1918      H1930   1.083       .  S
C1919      H1931   1.086       .  S
C1919      C1920   1.346       .  D
C1920      H1932   1.085       .  S
C1920      C1921   1.487       .  S
C1921      C1922   1.402       .  A
C1921      C1926   1.409       .  A
C1922      C1923   1.399       .  A
C1922      H1933   1.083       .  S
C1923      C1924   1.407       .  A
C1923      H1934   1.083       .  S
C1924      C1925   1.405       .  A
C1925      C1926   1.399       .  A
C1925      H1935   1.083       .  S
C1926      H1936   1.082       .  S
C1937      C1938   1.402       .  A
C1937      C1942   1.405       .  A
C1938      C1939   1.400       .  A
C1938      H1951   1.083       .  S
C1939      C1940   1.406       .  A
C1939      H1952   1.083       .  S
C1940      C1943   1.487       .  S
C1940      C1941   1.407       .  A
C1941      C1942   1.394       .  A
C1941      H1953   1.081       .  S
C1942      H1954   1.083       .  S
C1943      H1955   1.086       .  S
C1943      C1944   1.349       .  D
C1944      H1956   1.084       .  S
C1944      C1945   1.484       .  S
C1945      C1946   1.404       .  A
C1945      C1950   1.406       .  A
C1946      C1947   1.399       .  A
C1946      H1957   1.083       .  S
C1947      C1948   1.405       .  A
C1947      H1958   1.082       .  S
C1948      C1949   1.406       .  A
C1949      C1950   1.395       .  A
C1949      H1959   1.082       .  S
C1950      H1960   1.082       .  S
C1961      C1962   1.408       .  A
C1961      C1966   1.410       .  A
C1962      C1963   1.395       .  A
C1962      H1975   1.083       .  S
C1963      C1964   1.401       .  A
C1963      H1976   1.083       .  S
C1964      C1967   1.489       .  S
C1964      C1965   1.408       .  A
C1965      C1966   1.400       .  A
C1965      H1977   1.081       .  S
C1966      H1978   1.077       .  S
C1967      H1979   1.085       .  S
C1967      C1968   1.346       .  D
C1968      H1980   1.084       .  S
C1968      C1969   1.487       .  S
C1969      C1970   1.401       .  A
C1969      C1974   1.410       .  A
C1970      C1971   1.395       .  A
C1970      H1981   1.084       .  S
C1971      C1972   1.408       .  A
C1971      H1982   1.083       .  S
C1972      C1973   1.405       .  A
C1973      C1974   1.402       .  A
C1973      H1983   1.083       .  S
C1974      H1984   1.081       .  S
C1985      C1986   1.407       .  A
C1985      C1990   1.407       .  A
C1986      C1987   1.395       .  A
C1986      H1999   1.083       .  S
C1987      C1988   1.402       .  A
C1987      H2000   1.084       .  S
C1988      C1991   1.493       .  S
C1988      C1989   1.412       .  A
C1989      C1990   1.405       .  A
C1989      H2001   1.080       .  S
C1990      H2002   1.083       .  S
C1991      H2003   1.085       .  S
C1991      C1992   1.348       .  D
C1992      H2004   1.084       .  S
C1992      C1993   1.492       .  S
C1993      C1994   1.402       .  A
C1993      C1998   1.411       .  A
C1994      C1995   1.397       .  A
C1994      H2005   1.083       .  S
C1995      C1996   1.407       .  A
C1995      H2006   1.083       .  S
C1996      C1997   1.403       .  A
C1997      C1998   1.403       .  A
C1997      H2007   1.083       .  S
C1998      H2008   1.081       .  S
C2009      C2010   1.402       .  A
C2009      C2014   1.405       .  A
C2010      C2011   1.397       .  A
C2010      H2023   1.083       .  S
C2011      C2012   1.405       .  A
C2011      H2024   1.083       .  S
C2012      C2015   1.490       .  S
C2012      C2013   1.409       .  A
C2013      C2014   1.399       .  A
C2013      H2025   1.080       .  S
C2014      H2026   1.083       .  S
C2015      H2027   1.085       .  S
C2015      C2016   1.349       .  D
C2016      H2028   1.083       .  S
C2016      C2017   1.488       .  S
C2017      C2018   1.403       .  A
C2017      C2022   1.407       .  A
C2018      C2019   1.399       .  A
C2018      H2029   1.083       .  S
C2019      C2020   1.405       .  A
C2019      H2030   1.078       .  S
C2020      C2021   1.407       .  A
C2021      C2022   1.397       .  A
C2021      H2031   1.082       .  S
C2022      H2032   1.081       .  S
C2033      C2034   1.406       .  A
C2033      C2038   1.408       .  A
C2034      C2035   1.400       .  A
C2034      H2047   1.082       .  S
C2035      C2036   1.404       .  A
C2035      H2048   1.083       .  S
C2036      C2039   1.491       .  S
C2036      C2037   1.407       .  A
C2037      C2038   1.399       .  A
C2037      H2049   1.081       .  S
C2038      H2050   1.082       .  S
C2039      H2051   1.086   1_655  S
C2039      C2040   1.349   1_655  D
C2040      H2052   1.085       .  S
C2040      C2041   1.488       .  S
C2041      C2042   1.403       .  A
C2041      C2046   1.408       .  A
C2042      C2043   1.398       .  A
C2042      H2053   1.083       .  S
C2043      C2044   1.405       .  A
C2043      H2054   1.083       .  S
C2044      C2045   1.405       .  A
C2045      C2046   1.401       .  A
C2045      H2055   1.083       .  S
C2046      H2056   1.082       .  S
C2057      C2058   1.406       .  A
C2057      C2062   1.408       .  A
C2058      C2059   1.396       .  A
C2058      H2071   1.083       .  S
C2059      C2060   1.403       .  A
C2059      H2072   1.084       .  S
C2060      C2063   1.489       .  S
C2060      C2061   1.408       .  A
C2061      C2062   1.403       .  A
C2061      H2073   1.081       .  S
C2062      H2074   1.083       .  S
C2063      H2075   1.086       .  S
C2063      C2064   1.350       .  D
C2064      H2076   1.085       .  S
C2064      C2065   1.490       .  S
C2065      C2066   1.403       .  A
C2065      C2070   1.405       .  A
C2066      C2067   1.403       .  A
C2066      H2077   1.083       .  S
C2067      C2068   1.407       .  A
C2067      H2078   1.077       .  S
C2068      C2069   1.409       .  A
C2069      C2070   1.396       .  A
C2069      H2079   1.081       .  S
C2070      H2080   1.082       .  S
C2081      C2082   1.404       .  A
C2081      C2086   1.406       .  A
C2082      C2083   1.397       .  A
C2082      H2095   1.083       .  S
C2083      C2084   1.404       .  A
C2083      H2096   1.083       .  S
C2084      C2087   1.495       .  S
C2084      C2085   1.411       .  A
C2085      C2086   1.408       .  A
C2085      H2097   1.081       .  S
C2086      H2098   1.083       .  S
C2087      H2099   1.085       .  S
C2087      C2088   1.352       .  D
C2088      H2100   1.085       .  S
C2088      C2089   1.497       .  S
C2089      C2090   1.405       .  A
C2089      C2094   1.409       .  A
C2090      C2091   1.404       .  A
C2090      H2101   1.083       .  S
C2091      C2092   1.409       .  A
C2091      H2102   1.083       .  S
C2092      C2093   1.406       .  A
C2093      C2094   1.401       .  A
C2093      H2103   1.083       .  S
C2094      H2104   1.081       .  S
C2105      C2106   1.408       .  A
C2105      C2110   1.405       .  A
C2106      C2107   1.401       .  A
C2106      H2119   1.083       .  S
C2107      C2108   1.403       .  A
C2107      H2120   1.083       .  S
C2108      C2111   1.486       .  S
C2108      C2109   1.407       .  A
C2109      C2110   1.397       .  A
C2109      H2121   1.082       .  S
C2110      H2122   1.083       .  S
C2111      H2123   1.084       .  S
C2111      C2112   1.348       .  D
C2112      H2124   1.086       .  S
C2112      C2113   1.488       .  S
C2113      C2114   1.403       .  A
C2113      C2118   1.410       .  A
C2114      C2115   1.394       .  A
C2114      H2125   1.084       .  S
C2115      C2116   1.403       .  A
C2115      H2126   1.083       .  S
C2116      C2117   1.403       .  A
C2117      C2118   1.402       .  A
C2117      H2127   1.083       .  S
C2118      H2128   1.081       .  S
C2129      C2130   1.406       .  A
C2129      C2134   1.406       .  A
C2130      C2131   1.395       .  A
C2130      H2143   1.083       .  S
C2131      C2132   1.400       .  A
C2131      H2144   1.084       .  S
C2132      C2135   1.483       .  S
C2132      C2133   1.408       .  A
C2133      C2134   1.405       .  A
C2133      H2145   1.083       .  S
C2134      H2146   1.083       .  S
C2135      H2147   1.087       .  S
C2135      C2136   1.345       .  D
C2136      H2148   1.087       .  S
C2136      C2137   1.487       .  S
C2137      C2138   1.401       .  A
C2137      C2142   1.404       .  A
C2138      C2139   1.400       .  A
C2138      H2149   1.083       .  S
C2139      C2140   1.410       .  A
C2139      H2150   1.083       .  S
C2140      C2141   1.413       .  A
C2141      C2142   1.400       .  A
C2141      H2151   1.076       .  S
C2142      H2152   1.083       .  S
C2153      C2154   1.405       .  A
C2153      C2158   1.403       .  A
C2154      C2155   1.398       .  A
C2154      H2167   1.083       .  S
C2155      C2156   1.403       .  A
C2155      H2168   1.083       .  S
C2156      C2159   1.494       .  S
C2156      C2157   1.412       .  A
C2157      C2158   1.406       .  A
C2157      H2169   1.082       .  S
C2158      H2170   1.083       .  S
C2159      H2171   1.083       .  S
C2159      C2160   1.350       .  D
C2160      H2172   1.086       .  S
C2160      C2161   1.499       .  S
C2161      C2162   1.404       .  A
C2161      C2166   1.412       .  A
C2162      C2163   1.399       .  A
C2162      H2173   1.083       .  S
C2163      C2164   1.407       .  A
C2163      H2174   1.083       .  S
C2164      C2165   1.408       .  A
C2165      C2166   1.406       .  A
C2165      H2175   1.083       .  S
C2166      H2176   1.080       .  S
C2177      C2178   1.406       .  A
C2177      C2182   1.407       .  A
C2178      C2179   1.396       .  A
C2178      H2191   1.083       .  S
C2179      C2180   1.404       .  A
C2179      H2192   1.084       .  S
C2180      C2183   1.493       .  S
C2180      C2181   1.410       .  A
C2181      C2182   1.403       .  A
C2181      H2193   1.080       .  S
C2182      H2194   1.083       .  S
C2183      H2195   1.085       .  S
C2183      C2184   1.350       .  D
C2184      H2196   1.083       .  S
C2184      C2185   1.492       .  S
C2185      C2186   1.403       .  A
C2185      C2190   1.406       .  A
C2186      C2187   1.401       .  A
C2186      H2197   1.083       .  S
C2187      C2188   1.410       .  A
C2187      H2198   1.083       .  S
C2188      C2189   1.412       .  A
C2189      C2190   1.398       .  A
C2189      H2199   1.076       .  S
C2190      H2200   1.081       .  S
