geometry optimzed in LAMMPS
_audit_creation_date              2020-12-01 
_audit_creation_method            'lammps2cif' 
_symmetry_space_group_name_H-M    'P1' 
_symmetry_Int_Tables_number       1 
_symmetry_cell_setting            triclinic 
loop_ 
_symmetry_equiv_pos_as_xyz 
  x,y,z 
_cell_length_a                    26.69259868 
_cell_length_b                    26.094099574873457 
_cell_length_c                    26.62323981582216 
_cell_angle_alpha                 90.05123024289446 
_cell_angle_beta                  90.09070491982206 
_cell_angle_gamma                 89.40258489124135 
loop_ 
_atom_site_label 
_atom_site_type_symbol 
_atom_site_fract_x 
_atom_site_fract_y 
_atom_site_fract_z 
_atom_site_charge 
Fe1        Fe  0.08812081  0.58792628  0.23679225     1.65800
Fe2        Fe  0.20593228  0.63179764  0.25383284     1.73200
Fe3        Fe  0.10463325  0.71513840  0.24866212     1.54400
O4          O  0.05198080  0.70070183  0.19168389    -0.80400
O5          O  0.21354252  0.68196991  0.31333611    -0.78700
O6          O  0.06356237  0.61857965  0.17107434    -0.82900
O7          O  0.02980104  0.62088739  0.27699360    -0.77700
O8          O  0.15367535  0.73799639  0.19323571    -0.79500
O9          O  0.19374284  0.57274275  0.30659311    -0.82200
C10         C  0.02461819  0.65867740  0.30654877     0.98500
C11         C  0.04609932  0.66284752  0.16207318     1.06000
O12         O  0.13339609  0.64516900  0.24684842    -1.11200
O13         O  0.21077453  0.58091227  0.19418275    -0.73700
O14         O  0.13708176  0.54321010  0.19528677    -0.77100
O15         O  0.05345022  0.69707970  0.30496310    -0.77800
C16         C  0.18137807  0.54668427  0.17881541     0.97400
O17         O  0.11158080  0.55556811  0.30186225    -0.75800
O18         O  0.22261729  0.68872593  0.20166296    -0.81000
C19         C  0.19208484  0.72352743  0.32625658     1.00100
C20         C  0.19783214  0.72473961  0.18026881     1.06000
O21         O  0.15280382  0.74041275  0.30468127    -0.76600
C22         C  0.15406863  0.55090674  0.32258233     1.04300
Fe23       Fe  0.38996416  0.90692128  0.01051617     1.65800
Fe24       Fe  0.27038660  0.86502539  0.50405096     1.73200
Fe25       Fe  0.37527635  0.78457142  0.49873306     1.54400
O26         O  0.42547412  0.80026722  0.44022213    -0.80400
O27         O  0.25870617  0.80276893  0.05222928    -0.78700
O28         O  0.43223574  0.88507074  0.44190522    -0.82900
O29         O  0.42220143  0.87567056  0.07275922    -0.77700
O30         O  0.32448658  0.75961624  0.44510659    -0.79500
O31         O  0.27015833  0.91081319  0.06155439    -0.82200
C32         C  0.43876414  0.83121001  0.08253845     0.98500
C33         C  0.44369177  0.84180349  0.42371252     1.06000
O34         O  0.34436500  0.85450280  0.50000081    -1.11200
O35         O  0.26812554  0.92271004  0.44908508    -0.73700
O36         O  0.34677115  0.94901831  0.44146790    -0.77100
O37         O  0.42926203  0.79229289  0.05542566    -0.77800
C38         C  0.30128997  0.94982069  0.42782618     0.97400
O39         O  0.34392742  0.94858860  0.05771359    -0.75800
O40         O  0.25766514  0.81211699  0.44719909    -0.81000
C41         C  0.28434494  0.76663153  0.07216100     1.00100
C42         C  0.28140431  0.77361615  0.42941113     1.06000
O43         O  0.32807179  0.75403425  0.05740402    -0.76600
C44         C  0.30036313  0.94485812  0.07600562     1.04300
Fe45       Fe  0.90329189  0.59089823  0.49159503     1.65800
Fe46       Fe  0.78308758  0.60758280  0.99758880     1.73200
Fe47       Fe  0.85694166  0.71579304  0.99604264     1.54400
O48         O  0.90677035  0.71727355  0.05606487    -0.80400
O49         O  0.74847277  0.66342927  0.45495289    -0.78700
O50         O  0.95000825  0.64586851  0.04281942    -0.82900
O51         O  0.93025213  0.62866933  0.43001309    -0.77700
O52         O  0.80042724  0.72682045  0.04896233    -0.79500
O53         O  0.78513140  0.56088537  0.44402818    -0.82200
C54         C  0.93600313  0.67579203  0.42048729     0.98500
C55         C  0.94318492  0.68756269  0.06602647     1.06000
O56         O  0.84947751  0.64053956  0.99727636    -1.11200
O57         O  0.80381772  0.55319906  0.05256494    -0.73700
O58         O  0.88629435  0.56239545  0.06296894    -0.77100
O59         O  0.91449089  0.71081982  0.44619920    -0.77800
C60         C  0.84457688  0.54420870  0.07627394     0.97400
O61         O  0.86659053  0.54276697  0.44257461    -0.75800
O62         O  0.75796229  0.65373603  0.05531067    -0.81000
C63         C  0.76457616  0.70315175  0.43270557     1.00100
C64         C  0.76715042  0.69910845  0.06946396     1.06000
O65         O  0.80603736  0.72414850  0.44367447    -0.76600
C66         C  0.82227316  0.53649374  0.42641882     1.04300
Fe67       Fe  0.57982540  0.89367898  0.24528193     1.65800
Fe68       Fe  0.70642789  0.87824649  0.24834672     1.73200
Fe69       Fe  0.62797862  0.77288818  0.24967210     1.54400
O70         O  0.57000200  0.77756914  0.30328335    -0.80400
O71         O  0.73019970  0.83007919  0.19183506    -0.78700
O72         O  0.54730926  0.85998840  0.30612404    -0.82900
O73         O  0.54053746  0.84855912  0.19751134    -0.77700
O74         O  0.67812967  0.76375330  0.30860500    -0.79500
O75         O  0.68987827  0.93221628  0.19302230    -0.82200
C76         C  0.54366360  0.80485945  0.17730996     0.98500
C77         C  0.54398170  0.81426104  0.32185988     1.06000
O78         O  0.63829220  0.84807917  0.24807486    -1.11200
O79         O  0.69075377  0.93086747  0.30478788    -0.73700
O80         O  0.60971705  0.94676113  0.29242211    -0.77100
O81         O  0.57684780  0.77231042  0.19019707    -0.77800
C82         C  0.65086916  0.95597855  0.31382015     0.97400
O83         O  0.60682758  0.93059232  0.18378365    -0.75800
O84         O  0.73198665  0.82846049  0.30324429    -0.81000
C85         C  0.71865521  0.78568378  0.17667643     1.00100
C86         C  0.71695099  0.78732798  0.32336963     1.05200
O87         O  0.68362030  0.75958590  0.19621012    -0.76600
C88         C  0.64979871  0.94523731  0.17038369     1.04300
Fe89       Fe  0.08800547  0.40365384  0.48657624     1.65800
Fe90       Fe  0.21550969  0.36125404  0.00679058     1.73200
Fe91       Fe  0.11141208  0.28673725  0.99864041     1.54400
O92         O  0.06388034  0.30514269  0.05597170    -0.80400
O93         O  0.22617632  0.30751315  0.45115446    -0.78700
O94         O  0.03976123  0.38206151  0.02966120    -0.82900
O95         O  0.05774935  0.36086576  0.42991061    -0.77700
O96         O  0.15955076  0.25498607  0.05248802    -0.79500
O97         O  0.20696799  0.41531349  0.43547350    -0.82200
C98         C  0.04481400  0.31418447  0.42901320     0.98500
C99         C  0.03384236  0.34280873  0.05675130     1.06000
O100        O  0.14318141  0.35376998  0.00039348    -1.11200
O101        O  0.20782608  0.42283071  0.05903648    -0.73700
O102        O  0.12509218  0.43651194  0.06507562    -0.77100
O103        O  0.05938262  0.28193892  0.46190954    -0.77800
C104        C  0.16920680  0.44100224  0.08184060     0.97400
O105        O  0.12840718  0.44270169  0.43391382    -0.75800
O106        O  0.21864111  0.31279342  0.06808687    -0.81000
C107        C  0.20363410  0.26603363  0.43934675     1.00100
C108        C  0.19663655  0.27103223  0.07799741     1.06000
O109        O  0.16327878  0.25169173  0.45990528    -0.76600
C110        C  0.17286472  0.44373328  0.41770331     1.04300
Fe111      Fe  0.39412339  0.08488461  0.23926652     1.65800
Fe112      Fe  0.37105330  0.20990163  0.25750448     1.73200
Fe113      Fe  0.27510783  0.12368824  0.25441373     1.54400
O114        O  0.28060208  0.06709533  0.19665339    -0.80400
O115        O  0.33231472  0.22155054  0.32217058    -0.78700
O116        O  0.36078197  0.06861045  0.17281873    -0.82900
O117        O  0.35274478  0.03000666  0.27619632    -0.77700
O118        O  0.25820663  0.17717971  0.19899122    -0.79500
O119        O  0.43215114  0.18603314  0.30239049    -0.82200
C120        C  0.31935779  0.03295827  0.30984732     0.98500
C121        C  0.31573507  0.05611299  0.16551707     1.06000
O122        O  0.34637947  0.14002215  0.25059944    -1.11200
O123        O  0.41219702  0.20682262  0.19249803    -0.73700
O124        O  0.44473011  0.12910972  0.20080953    -0.77100
O125        O  0.28763609  0.06958168  0.31095984    -0.77800
C126        C  0.44374021  0.17285317  0.18020725     0.97400
O127        O  0.42869688  0.10038685  0.30517036    -0.75800
O128        O  0.31287725  0.23996523  0.21394461    -0.81000
C129        C  0.28824522  0.21071422  0.33517811     1.00100
C130        C  0.27522365  0.22184095  0.19064717     1.06000
O131        O  0.26140675  0.17815396  0.31163816    -0.76600
C132        C  0.44522168  0.14269195  0.32103726     1.04300
Fe133      Fe  0.59351711  0.08730391  0.49146418     1.65800
Fe134      Fe  0.60905621  0.21397311  0.00828102     1.73200
Fe135      Fe  0.71205020  0.13331071  0.00500888     1.54400
O136        O  0.71030461  0.08296712  0.06507279    -0.80400
O137        O  0.66633059  0.24308601  0.45185604    -0.78700
O138        O  0.64354500  0.03877069  0.04316823    -0.82900
O139        O  0.63083001  0.05640531  0.43249929    -0.77700
O140        O  0.72465976  0.19057757  0.05756839    -0.79500
O141        O  0.56565513  0.20771918  0.44099413    -0.82200
C142        C  0.67632252  0.05063359  0.42044329     0.98500
C143        C  0.68117892  0.04557281  0.07116649     1.06000
O144        O  0.63935170  0.14491936  0.00551053    -1.11200
O145        O  0.55421238  0.19159213  0.06008993    -0.73700
O146        O  0.56455284  0.10697380  0.06957889    -0.77100
O147        O  0.71152859  0.07323741  0.44337485    -0.77800
C148        C  0.54625691  0.14961491  0.08324072     0.97400
O149        O  0.54811712  0.12464930  0.44043502    -0.75800
O150        O  0.65326894  0.23445711  0.06885473    -0.81000
C151        C  0.70635385  0.22599116  0.43178312     1.00100
C152        C  0.69823492  0.22376491  0.08090951     1.06000
O153        O  0.72628489  0.18316806  0.44354279    -0.76600
C154        C  0.54212263  0.16981689  0.42364711     1.04300
Fe155      Fe  0.91110371  0.39394488  0.23685526     1.65800
Fe156      Fe  0.79025473  0.36193951  0.25484597     1.73200
Fe157      Fe  0.88387701  0.27049804  0.25227837     1.54400
O158        O  0.93904219  0.27963501  0.19729694    -0.80400
O159        O  0.77915966  0.31544812  0.31664150    -0.78700
O160        O  0.93047588  0.36021157  0.17125775    -0.82900
O161        O  0.96749192  0.35541949  0.27448008    -0.77700
O162        O  0.83437349  0.25049670  0.19625760    -0.79500
O163        O  0.80848593  0.42189339  0.30509196    -0.82200
C164        C  0.96736919  0.32130569  0.30814005     0.98500
C165        C  0.94791129  0.31526901  0.16605888     1.06000
O166        O  0.86096162  0.34195371  0.24828874    -1.11200
O167        O  0.79010506  0.41035383  0.19271539    -0.73700
O168        O  0.86594445  0.44287771  0.19681040    -0.77100
O169        O  0.93397605  0.28709138  0.30980661    -0.77800
C170        C  0.82245797  0.44210731  0.17812527     0.97400
O171        O  0.89227732  0.42886858  0.30208753    -0.75800
O172        O  0.76832614  0.30384854  0.20542779    -0.81000
C173        C  0.79643518  0.27176053  0.32903894     1.00100
C174        C  0.79054232  0.26590856  0.18424202     1.06000
O175        O  0.83299771  0.25052067  0.30673580    -0.76600
C176        C  0.85014856  0.43956511  0.32146762     1.04300
C177        C  0.72060177  0.25143700  0.12396011    -0.15100
C178        C  0.76562324  0.23805789  0.14293556    -0.30300
H179        H  0.69964984  0.28320467  0.14034428     0.13900
H180        H  0.78604226  0.20586274  0.12664047     0.14500
C181        C  0.77333686  0.24301082  0.37050057    -0.15100
C182        C  0.73032081  0.25760987  0.39274377    -0.30300
H183        H  0.79148118  0.20727872  0.38158458     0.13900
H184        H  0.71177702  0.29306281  0.38149115     0.14500
C185        C  0.48011386  0.18361966  0.14003851    -0.15100
C186        C  0.51406720  0.14768557  0.12755714    -0.30300
H187        H  0.47714551  0.21913905  0.11893169     0.13900
H188        H  0.51587047  0.11207621  0.14871319     0.14500
C189        C  0.48127021  0.13894134  0.36252272    -0.15100
C190        C  0.50614172  0.17849841  0.38225062    -0.30300
H191        H  0.48805972  0.10056500  0.37709897     0.13900
H192        H  0.50023227  0.21705926  0.36789915     0.14500
C193        C  0.98248698  0.30572719  0.12420214    -0.15100
C194        C  0.99127644  0.34325901  0.09103450    -0.30300
H195        H  0.00427123  0.27031943  0.12355451     0.13900
H196        H  0.96874164  0.37822113  0.09164921     0.14500
C197        C  0.01033941  0.29763844  0.38861612    -0.15100
C198        C  0.00723273  0.32523786  0.34618426    -0.30300
H199        H  0.98601896  0.26512853  0.39469294     0.13900
H200        H  0.03327965  0.35654080  0.34078289     0.14500
C201        C  0.21522043  0.23897375  0.12036195    -0.15100
C202        C  0.25203259  0.25466839  0.15133547    -0.30300
H203        H  0.19918452  0.20121586  0.12531078     0.13900
H204        H  0.26776056  0.29255289  0.14620536     0.14500
C205        C  0.26868000  0.23991530  0.37860868    -0.15100
C206        C  0.22355727  0.23266815  0.39889654    -0.30300
H207        H  0.29236365  0.26992821  0.39365388     0.13900
H208        H  0.20005758  0.20201039  0.38491118     0.14500
C209        C  0.65095524  0.97851970  0.12616956    -0.15100
C210        C  0.68903169  0.00911666  0.11300565    -0.30300
H211        H  0.61605614  0.98026559  0.10507630     0.13900
H212        H  0.72327379  0.01014381  0.13505875     0.14500
C213        C  0.64894166  0.99707811  0.35128930    -0.15100
C214        C  0.68742425  0.01459402  0.37882816    -0.30300
H215        H  0.61164160  0.01304556  0.35742861     0.13900
H216        H  0.72540483  0.00071994  0.37260586     0.14500
C217        C  0.84646981  0.51123100  0.12120300    -0.15100
C218        C  0.81075085  0.47879721  0.13684096    -0.30300
H219        H  0.88215880  0.51162452  0.14093267     0.13900
H220        H  0.77495303  0.47699172  0.11752077     0.14500
C221        C  0.85261900  0.47421741  0.36486150    -0.15100
C222        C  0.81373311  0.49954181  0.38513819    -0.30300
H223        H  0.89006188  0.48097873  0.37944663     0.13900
H224        H  0.77610341  0.49425140  0.37054860     0.14500
C225        C  0.73337335  0.72486861  0.39179813    -0.15100
C226        C  0.74690016  0.76652821  0.36559726    -0.30300
H227        H  0.69871991  0.70549056  0.38251542     0.13900
H228        H  0.78137611  0.78609964  0.37515995     0.14500
C229        C  0.73751200  0.71964424  0.11204363    -0.15100
C230        C  0.74779933  0.76468623  0.13401810    -0.30300
H231        H  0.70701026  0.69653443  0.12625119     0.13900
H232        H  0.77849020  0.78758751  0.11987356     0.14500
C233        C  0.30696245  0.02748598  0.11864993    -0.15100
C234        C  0.28587296  0.98094535  0.11682761    -0.30300
H235        H  0.32986169  0.03923391  0.08700249     0.13900
H236        H  0.26342715  0.96723428  0.14793766     0.14500
C237        C  0.28764722  0.98433117  0.38538863    -0.15100
C238        C  0.32190610  0.99316261  0.34939603    -0.30300
H239        H  0.25123137  0.00324392  0.38449224     0.13900
H240        H  0.35655946  0.97082579  0.35016946     0.14500
C241        C  0.50764344  0.79383744  0.13616291    -0.15100
C242        C  0.46979843  0.82744042  0.12797715    -0.30300
H243        H  0.51442615  0.76201292  0.11067569     0.13900
H244        H  0.46427330  0.85907305  0.15407030     0.14500
C245        C  0.50772645  0.80430523  0.36332318    -0.15100
C246        C  0.47907079  0.84321988  0.38106140    -0.30300
H247        H  0.50497872  0.76620188  0.37937170     0.13900
H248        H  0.48338867  0.88107603  0.36471763     0.14500
C249        C  0.17257883  0.46728579  0.13068294    -0.15100
C250        C  0.19780180  0.51085813  0.13844034    -0.30300
H251        H  0.14370538  0.45691427  0.15747815     0.13900
H252        H  0.22609226  0.52304231  0.11184333     0.14500
C253        C  0.15414043  0.51995913  0.36837851    -0.15100
C254        C  0.18483964  0.47990310  0.37679040    -0.30300
H255        H  0.12169313  0.52558376  0.39249594     0.13900
H256        H  0.21707519  0.47283636  0.35281159     0.14500
C257        C  0.01783946  0.66780395  0.11509052    -0.15100
C258        C  0.97815377  0.69916458  0.10772214    -0.30300
H259        H  0.02623919  0.63818098  0.08751894     0.13900
H260        H  0.96843424  0.72852938  0.13505997     0.14500
C261        C  0.98449496  0.65392551  0.34471732    -0.15100
C262        C  0.97058194  0.68964405  0.37875956    -0.30300
H263        H  0.96669319  0.61665504  0.34612595     0.13900
H264        H  0.98614338  0.72789765  0.37732153     0.14500
C265        C  0.22024092  0.75282521  0.13774373    -0.15100
C266        C  0.26304111  0.73803322  0.11504026    -0.30300
H267        H  0.19981757  0.78612791  0.12374020     0.13900
H268        H  0.28356894  0.70472032  0.12884253     0.14500
C269        C  0.21368591  0.75425293  0.36779490    -0.15100
C270        C  0.25851802  0.74288409  0.38865545    -0.30300
H271        H  0.19283067  0.78779897  0.38050691     0.13900
H272        H  0.27964377  0.70981544  0.37519089     0.14500
Fe273      Fe  0.09489473  0.57507167  0.74482366     1.65800
Fe274      Fe  0.21242571  0.62468095  0.75236769     1.73200
Fe275      Fe  0.10748691  0.70447405  0.74617385     1.54400
O276        O  0.05638700  0.68569130  0.68872469    -0.80400
O277        O  0.21977059  0.67852499  0.80869741    -0.78700
O278        O  0.05951381  0.60052359  0.68150646    -0.82900
O279        O  0.04068380  0.60636264  0.79046158    -0.77700
O280        O  0.15643215  0.72805460  0.69108232    -0.79500
O281        O  0.20676248  0.56871341  0.80950991    -0.82200
C282        C  0.03082716  0.64872088  0.81157318     0.98500
C283        C  0.04460779  0.64409532  0.66660165     1.06000
O284        O  0.13848805  0.63503496  0.74782359    -1.11200
O285        O  0.21583556  0.57033928  0.69502194    -0.73700
O286        O  0.14111278  0.53422014  0.69786989    -0.77100
O287        O  0.05472743  0.68930773  0.80183908    -0.77800
C288        C  0.18435024  0.53822981  0.67896020     0.97400
O289        O  0.12646832  0.54535642  0.80836923    -0.75800
O290        O  0.22603823  0.67988721  0.69721977    -0.81000
C291        C  0.19577551  0.71836680  0.82252362     1.00100
C292        C  0.20064337  0.71630957  0.67734525     1.06000
O293        O  0.15447027  0.73227832  0.80250520    -0.76600
C294        C  0.16950165  0.54520205  0.82835608     1.04300
Fe295      Fe  0.38778748  0.91463910  0.49734777     1.65800
Fe296      Fe  0.27193970  0.86078420  0.00069783     1.73200
Fe297      Fe  0.37465572  0.77851080  0.00029684     1.54400
O298        O  0.42437117  0.79659813  0.94260554    -0.80400
O299        O  0.26226810  0.80909221  0.55883005    -0.78700
O300        O  0.44408303  0.87635889  0.96363231    -0.82900
O301        O  0.43393168  0.88662383  0.55262736    -0.77700
O302        O  0.32442867  0.75437953  0.94562320    -0.79500
O303        O  0.27414324  0.91884857  0.56233207    -0.82200
C304        C  0.44678675  0.84317875  0.56982289     0.98500
C305        C  0.45054114  0.83659326  0.93696381     1.06000
O306        O  0.34521688  0.84855907  0.00341107    -1.11200
O307        O  0.27878275  0.92125180  0.94898424    -0.73700
O308        O  0.35982747  0.94203113  0.94936914    -0.77100
O309        O  0.42932089  0.80133848  0.55306667    -0.77800
C310        C  0.31580252  0.94644079  0.93184870     0.97400
O311        O  0.34937779  0.95286339  0.55269730    -0.75800
O312        O  0.26200260  0.81156414  0.94047010    -0.81000
C313        C  0.28797396  0.77120683  0.57498956     1.00100
C314        C  0.28396919  0.77082427  0.92586743     1.06000
O315        O  0.33026886  0.75873596  0.55667939    -0.76600
C316        C  0.30778638  0.95031518  0.57539282     1.04300
Fe317      Fe  0.90962447  0.59744328  0.99893121     1.65800
Fe318      Fe  0.77743468  0.60929521  0.50470008     1.73200
Fe319      Fe  0.85740137  0.71230693  0.50078448     1.54400
O320        O  0.90955455  0.70621164  0.55847900    -0.80400
O321        O  0.75424646  0.65796845  0.94384331    -0.78700
O322        O  0.94797910  0.63235529  0.54025366    -0.82900
O323        O  0.93654936  0.63021334  0.93526086    -0.77700
O324        O  0.80264799  0.72604020  0.55539942    -0.79500
O325        O  0.80085817  0.55768239  0.93917577    -0.82200
C326        C  0.93948329  0.67639453  0.92085751     0.98500
C327        C  0.94404493  0.67321151  0.56611720     1.06000
O328        O  0.84585041  0.63753006  0.49906643    -1.11200
O329        O  0.79876204  0.55143556  0.55522105    -0.73700
O330        O  0.88228301  0.54839484  0.55222362    -0.77100
O331        O  0.91549271  0.71289673  0.94248367    -0.77800
C332        C  0.84097772  0.53466106  0.57087822     0.97400
O333        O  0.88092293  0.54070640  0.95513458    -0.75800
O334        O  0.75998192  0.65393087  0.56567130    -0.81000
C335        C  0.76774941  0.69991699  0.92382535     1.00100
C336        C  0.76985149  0.69952304  0.57797949     1.06000
O337        O  0.80677241  0.72378028  0.93741360    -0.76600
C338        C  0.84099748  0.53252223  0.93125262     1.04300
Fe339      Fe  0.57354037  0.89812831  0.75040615     1.65800
Fe340      Fe  0.70074502  0.88391932  0.74959503     1.73200
Fe341      Fe  0.62351279  0.77761597  0.74946700     1.54400
O342        O  0.56645586  0.77937311  0.80401572    -0.80400
O343        O  0.72570289  0.83616479  0.69299944    -0.78700
O344        O  0.54202722  0.86100704  0.81009743    -0.82900
O345        O  0.53491445  0.85535061  0.69961519    -0.77700
O346        O  0.67500721  0.76686623  0.80701374    -0.79500
O347        O  0.68253483  0.93717475  0.69363270    -0.82200
C348        C  0.53925040  0.81269148  0.67743750     0.98500
C349        C  0.54051376  0.81482186  0.82472337     1.06000
O350        O  0.63286758  0.85307180  0.75002862    -1.11200
O351        O  0.68545332  0.93667029  0.80657376    -0.73700
O352        O  0.60311752  0.94840725  0.80057197    -0.77100
O353        O  0.57162179  0.77927117  0.69054344    -0.77800
C354        C  0.64505825  0.95891046  0.81969591     0.97400
O355        O  0.59899912  0.93938618  0.69069773    -0.75800
O356        O  0.72687614  0.83364038  0.80435041    -0.81000
C357        C  0.71478365  0.79174950  0.67746643     1.00100
C358        C  0.71337559  0.79082555  0.82246257     1.05200
O359        O  0.67894019  0.76587057  0.69565247    -0.76600
C360        C  0.64141111  0.95224855  0.67404791     1.04300
Fe361      Fe  0.10123911  0.41486454  0.99601722     1.65800
Fe362      Fe  0.21052452  0.36981320  0.49872628     1.73200
Fe363      Fe  0.11735485  0.28052131  0.51513524     1.54400
O364        O  0.06912971  0.30390654  0.57139116    -0.80400
O365        O  0.22943511  0.30014443  0.95685117    -0.78700
O366        O  0.03794980  0.37548216  0.53788902    -0.82900
O367        O  0.07587807  0.39320125  0.92725654    -0.77700
O368        O  0.17174183  0.26760754  0.57025613    -0.79500
O369        O  0.21912290  0.40942164  0.94450655    -0.82200
C370        C  0.05381809  0.35159312  0.91754334     0.98500
C371        C  0.03769551  0.34069225  0.57089415     1.06000
O372        O  0.13901473  0.35124443  0.50022251    -1.11200
O373        O  0.19837616  0.43262797  0.54761097    -0.73700
O374        O  0.11577382  0.44864496  0.54246279    -0.77100
O375        O  0.05913164  0.31118717  0.94430433    -0.77800
C376        C  0.15853507  0.45622570  0.56183097     0.97400
O377        O  0.15432991  0.45981692  0.96121447    -0.75800
O378        O  0.22825539  0.32868813  0.56103558    -0.81000
C379        C  0.20235355  0.26780068  0.93319614     1.00100
C380        C  0.21171859  0.29002483  0.58347220     1.06000
O381        O  0.15622638  0.26200508  0.94175353    -0.76600
C382        C  0.19270095  0.44891020  0.93517559     1.04300
Fe383      Fe  0.41489500  0.09990534  0.75182960     1.65800
Fe384      Fe  0.36862246  0.22089152  0.74841111     1.73200
Fe385      Fe  0.28872600  0.11759567  0.76094463     1.54400
O386        O  0.30115312  0.06144319  0.70462010    -0.80400
O387        O  0.32652932  0.23461045  0.81052077    -0.78700
O388        O  0.38438038  0.05967267  0.69393116    -0.82900
O389        O  0.38750656  0.04939915  0.80368098    -0.77700
O390        O  0.25903453  0.16329230  0.70594909    -0.79500
O391        O  0.43124808  0.21979361  0.79663259    -0.82200
C392        C  0.34702137  0.04174246  0.82682436     0.98500
C393        C  0.34057353  0.04628069  0.68138721     1.06000
O394        O  0.35700875  0.14617608  0.75360403    -1.11200
O395        O  0.41268296  0.21559804  0.68514785    -0.73700
O396        O  0.45279521  0.14220543  0.69931271    -0.77100
O397        O  0.30723658  0.06668115  0.81752911    -0.77800
C398        C  0.44634063  0.18307929  0.67432405     0.97400
O399        O  0.44844750  0.13722005  0.81006152    -0.75800
O400        O  0.30740650  0.23215756  0.70081806    -0.81000
C401        C  0.28987011  0.21366490  0.83191676     1.00100
C402        C  0.26918375  0.20653586  0.68764615     1.06000
O403        O  0.27054663  0.17158651  0.81697756    -0.76600
C404        C  0.45381908  0.18421586  0.82072773     1.04300
Fe405      Fe  0.59607572  0.08577672  0.00355453     1.65800
Fe406      Fe  0.61306490  0.21553946  0.50149728     1.73200
Fe407      Fe  0.71309409  0.12993340  0.49894420     1.54400
O408        O  0.70725919  0.07589113  0.55558534    -0.80400
O409        O  0.66026556  0.24359786  0.95767858    -0.78700
O410        O  0.63208118  0.04246598  0.54229717    -0.82900
O411        O  0.62674855  0.06220994  0.93787795    -0.77700
O412        O  0.72540763  0.18360107  0.55449959    -0.79500
O413        O  0.56207384  0.20086045  0.94689153    -0.82200
C414        C  0.67228281  0.05347868  0.92707882     0.98500
C415        C  0.67320296  0.04418825  0.56618595     1.06000
O416        O  0.64000336  0.14444695  0.49719854    -1.11200
O417        O  0.55644191  0.19691360  0.55238458    -0.73700
O418        O  0.55167024  0.11176258  0.55023949    -0.77100
O419        O  0.70826451  0.07317129  0.95193206    -0.77800
C420        C  0.53937817  0.15465229  0.56848084     0.97400
O421        O  0.53992754  0.12101306  0.96325378    -0.75800
O422        O  0.65681001  0.23248897  0.56208863    -0.81000
C423        C  0.69874181  0.22603988  0.93510855     1.00100
C424        C  0.70009672  0.21866365  0.57612620     1.06000
O425        O  0.71978463  0.18365114  0.94644937    -0.76600
C426        C  0.53498429  0.16209179  0.93859793     1.04300
Fe427      Fe  0.89804958  0.39644230  0.74992119     1.65800
Fe428      Fe  0.77692819  0.35667047  0.75053686     1.73200
Fe429      Fe  0.87456828  0.26892979  0.75545292     1.54400
O430        O  0.93270239  0.27962022  0.70527636    -0.80400
O431        O  0.76275945  0.30925764  0.81082086    -0.78700
O432        O  0.93723575  0.36362727  0.69185470    -0.82900
O433        O  0.94516708  0.36297906  0.80211047    -0.77700
O434        O  0.83094312  0.24752489  0.69589636    -0.79500
O435        O  0.78168562  0.41685265  0.80139853    -0.82200
C436        C  0.94843937  0.32070681  0.82549481     0.98500
C437        C  0.95022316  0.31780380  0.68207905     1.06000
O438        O  0.84970151  0.34065404  0.75197807    -1.11200
O439        O  0.78188281  0.40648949  0.68994918    -0.73700
O440        O  0.85862041  0.43782806  0.69709733    -0.77100
O441        O  0.92092557  0.28284268  0.81554959    -0.77800
C442        C  0.81600583  0.43678259  0.67604208     0.97400
O443        O  0.86304602  0.43431944  0.80780289    -0.75800
O444        O  0.76339324  0.29870221  0.69963926    -0.81000
C445        C  0.78198956  0.26722047  0.82559547     1.00100
C446        C  0.78798127  0.26144676  0.68067375     1.06000
O447        O  0.82082973  0.24745397  0.80608936    -0.76600
C448        C  0.81782136  0.44057603  0.82150886     1.04300
C449        C  0.72140726  0.24546944  0.61940873    -0.15100
C450        C  0.76629415  0.23294716  0.63856739    -0.30300
H451        H  0.69958438  0.27673172  0.63563944     0.13900
H452        H  0.78808603  0.20157061  0.62251700     0.14500
C453        C  0.75932605  0.23898725  0.86733402    -0.15100
C454        C  0.71971994  0.25631843  0.89356941    -0.30300
H455        H  0.77652182  0.20234125  0.87698957     0.13900
H456        H  0.70235191  0.29296375  0.88429790     0.14500
C457        C  0.47932726  0.19208499  0.63076743    -0.15100
C458        C  0.50486014  0.15237758  0.61114272    -0.30300
H459        H  0.48169370  0.23004588  0.61428126     0.13900
H460        H  0.49952308  0.11431291  0.62678216     0.14500
C461        C  0.48787968  0.19680424  0.86318356    -0.15100
C462        C  0.49679046  0.16082590  0.89843458    -0.30300
H463        H  0.50597236  0.23383820  0.86491754     0.13900
H464        H  0.47628844  0.12507120  0.89612588     0.14500
C465        C  0.98769214  0.30848742  0.64241144    -0.15100
C466        C  0.99949571  0.34582994  0.61017815    -0.30300
H467        H  0.00537451  0.27090814  0.63944535     0.13900
H468        H  0.97977149  0.38246081  0.61216976     0.14500
C469        C  0.01935681  0.35223108  0.87458766    -0.15100
C470        C  0.98571150  0.31540006  0.86605156    -0.30300
H471        H  0.01964930  0.38619124  0.85096527     0.13900
H472        H  0.98494968  0.28143405  0.88960911     0.14500
C473        C  0.24233663  0.27128584  0.62585460    -0.15100
C474        C  0.23457970  0.22658616  0.64886173    -0.30300
H475        H  0.27442400  0.29418308  0.63660746     0.13900
H476        H  0.20299595  0.20313674  0.63781048     0.14500
C477        C  0.27006996  0.24156159  0.87582833    -0.15100
C478        C  0.22391810  0.23486521  0.89349975    -0.30300
H479        H  0.29307811  0.27177454  0.89153467     0.13900
H480        H  0.20003084  0.20618643  0.87641192     0.14500
C481        C  0.64047059  0.98577930  0.62958060    -0.15100
C482        C  0.68041813  0.00880369  0.60917760    -0.30300
H483        H  0.60356781  0.99298091  0.61354181     0.13900
H484        H  0.71737511  0.00404060  0.62576358     0.14500
C485        C  0.64348261  0.99826009  0.85922750    -0.15100
C486        C  0.68254033  0.01750729  0.88492549    -0.30300
H487        H  0.60584516  0.01170067  0.86817912     0.13900
H488        H  0.72066898  0.00544549  0.87651770     0.14500
C489        C  0.84470939  0.49823355  0.61305583    -0.15100
C490        C  0.80644862  0.47240809  0.63353349    -0.30300
H491        H  0.88238786  0.49164250  0.62741611     0.13900
H492        H  0.76873431  0.47678680  0.61865637     0.14500
C493        C  0.80717541  0.47735105  0.86252789    -0.15100
C494        C  0.84471915  0.49294588  0.89213663    -0.30300
H495        H  0.76924004  0.49166869  0.86818787     0.13900
H496        H  0.88193048  0.47645303  0.88672610     0.14500
C497        C  0.73605794  0.72180331  0.88318932    -0.15100
C498        C  0.74458630  0.76833160  0.86308867    -0.30300
H499        H  0.70453474  0.69940067  0.87007451     0.13900
H500        H  0.77603392  0.79071843  0.87642898     0.14500
C501        C  0.74054440  0.72165649  0.62001823    -0.15100
C502        C  0.74566525  0.77006223  0.63624404    -0.30300
H503        H  0.71300692  0.69716916  0.63769626     0.13900
H504        H  0.77343443  0.79457129  0.61898922     0.14500
C505        C  0.33886893  0.01230032  0.63692125    -0.15100
C506        C  0.29985882  0.98500806  0.61944201    -0.30300
H507        H  0.37473286  0.00835602  0.61791773     0.13900
H508        H  0.26382077  0.98656934  0.63826276     0.14500
C509        C  0.30834550  0.98322924  0.89007275    -0.15100
C510        C  0.34860808  0.00284888  0.86671026    -0.30300
H511        H  0.27065802  0.99448455  0.87892350     0.13900
H512        H  0.38589388  0.98934679  0.87703035     0.14500
C513        C  0.50539911  0.80354849  0.63398296    -0.15100
C514        C  0.48269573  0.84419428  0.61196133    -0.30300
H515        H  0.49998211  0.76499668  0.61974238     0.13900
H516        H  0.49102265  0.88242441  0.62574502     0.14500
C517        C  0.50621595  0.80264468  0.86718200    -0.15100
C518        C  0.48886452  0.84074428  0.89696561    -0.30300
H519        H  0.49464476  0.76337871  0.87332762     0.13900
H520        H  0.50314018  0.87917350  0.89118405     0.14500
C521        C  0.15819017  0.49337745  0.60369655    -0.15100
C522        C  0.19613969  0.50526692  0.63485779    -0.30300
H523        H  0.12156944  0.51049085  0.61117809     0.13900
H524        H  0.23404809  0.49152932  0.62799752     0.14500
C525        C  0.17227345  0.51971372  0.87781938    -0.15100
C526        C  0.20475570  0.48229178  0.89134734    -0.30300
H527        H  0.13962834  0.52674394  0.90127798     0.13900
H528        H  0.23602799  0.47229527  0.86707060     0.14500
C529        C  0.01224321  0.64374784  0.62152179    -0.15100
C530        C  0.98034733  0.68150965  0.60774518    -0.30300
H531        H  0.01195353  0.60785197  0.60076088     0.13900
H532        H  0.97847771  0.71687185  0.62924682     0.14500
C533        C  0.99091422  0.64732437  0.84997486    -0.15100
C534        C  0.97368763  0.68691329  0.87796264    -0.30300
H535        H  0.97602021  0.60935249  0.85693354     0.13900
H536        H  0.98634159  0.72567152  0.87099635     0.14500
C537        C  0.22225323  0.74749680  0.63631066    -0.15100
C538        C  0.26817973  0.73957241  0.61677747    -0.30300
H539        H  0.19888402  0.77827419  0.62137570     0.13900
H540        H  0.29162516  0.70861650  0.63119417     0.14500
C541        C  0.21689546  0.75040974  0.86348331    -0.15100
C542        C  0.26203528  0.74020494  0.88443291    -0.30300
H543        H  0.19504955  0.78322092  0.87636394     0.13900
H544        H  0.28363844  0.70725249  0.87146499     0.14500
loop_ 
_geom_bond_atom_site_label_1 
_geom_bond_atom_site_label_2 
_geom_bond_distance 
_geom_bond_site_symmetry_2 
_ccdc_geom_bond_type 
Fe1          O17   2.023       .  S
Fe1           O7   2.070       .  S
Fe1          O14   2.064       .  S
Fe1           O6   2.029       .  S
Fe1          O12   1.949       .  S
Fe2           O5   2.065       .  S
Fe2           O9   2.114       .  S
Fe2          O13   2.072       .  S
Fe2          O18   2.087       .  S
Fe2          O12   1.972       .  S
Fe3          O21   2.079       .  S
Fe3           O8   2.067       .  S
Fe3          O15   2.087       .  S
Fe3           O4   2.103       .  S
Fe3          O12   1.974       .  S
O4           C11   1.274       .  A
O5           C19   1.269       .  A
O6           C11   1.264       .  A
O7           C10   1.268       .  A
O8           C20   1.273       .  A
O9           C22   1.281       .  A
C10          O15   1.271       .  A
C10         C261   1.484   1_455  S
C11         C257   1.465       .  S
O13          C16   1.262       .  A
O14          C16   1.266       .  A
C16         C250   1.488       .  S
O17          C22   1.265       .  A
O18          C20   1.278       .  A
C19          O21   1.270       .  A
C19         C269   1.485       .  S
C20         C265   1.480       .  S
C22         C253   1.463       .  S
Fe23         O39   2.061       .  S
Fe23         O29   2.033       .  S
Fe23        O308   2.030   1_554  S
Fe23        O300   2.064   1_554  S
Fe23        O306   1.954       .  S
Fe24         O35   2.101       .  S
Fe24         O40   2.078       .  S
Fe24        O299   2.077       .  S
Fe24        O303   2.095       .  S
Fe24         O34   1.994       .  S
Fe25         O30   2.076       .  S
Fe25         O26   2.100       .  S
Fe25        O315   2.074       .  S
Fe25        O309   2.091       .  S
Fe25         O34   1.995       .  S
O26          C33   1.272       .  A
O27        Fe296   2.077       .  S
O27          C41   1.275       .  A
O28        Fe295   2.041       .  S
O28          C33   1.263       .  A
O29          C32   1.264       .  A
O30          C42   1.273       .  A
O31        Fe296   2.080       .  S
O31          C44   1.265       .  A
C32          O37   1.273       .  A
C32         C242   1.468       .  S
C33         C246   1.479       .  S
O34        Fe295   1.962       .  S
O35          C38   1.273       .  A
O36        Fe295   2.048       .  S
O36          C38   1.267       .  A
O37        Fe297   2.100       .  S
C38         C237   1.488       .  S
O39          C44   1.266       .  A
O40          C42   1.274       .  A
C41          O43   1.272       .  A
C41         C266   1.482       .  S
C42         C270   1.483       .  S
O43        Fe297   2.071       .  S
C44         C234   1.486       .  S
Fe45         O61   2.064       .  S
Fe45         O51   2.049       .  S
Fe45        O330   2.042       .  S
Fe45        O322   2.071       .  S
Fe45        O328   1.958       .  S
Fe46         O57   2.109   1_556  S
Fe46         O62   2.060   1_556  S
Fe46        O321   2.085       .  S
Fe46        O325   2.080       .  S
Fe46         O56   1.978       .  S
Fe47         O52   2.083   1_556  S
Fe47         O48   2.078   1_556  S
Fe47        O337   2.064       .  S
Fe47        O331   2.118       .  S
Fe47         O56   1.976       .  S
O48          C55   1.265       .  A
O49        Fe318   2.080       .  S
O49          C63   1.273       .  A
O50        Fe317   2.036   1_554  S
O50          C55   1.262       .  A
O51          C54   1.267       .  A
O52          C64   1.275       .  A
O53        Fe318   2.059       .  S
O53          C66   1.263       .  A
C54          O59   1.274       .  A
C54         C262   1.493       .  S
C55         C258   1.482       .  S
O56        Fe317   1.951       .  S
O57          C60   1.277       .  A
O58        Fe317   2.037   1_554  S
O58          C60   1.266       .  A
O59        Fe319   2.107       .  S
C60         C217   1.475       .  S
O61          C66   1.270       .  A
O62          C64   1.268       .  A
C63          O65   1.273       .  A
C63         C225   1.480       .  S
C64         C229   1.480       .  S
O65        Fe319   2.067       .  S
C66         C222   1.480       .  S
Fe67         O83   2.037       .  S
Fe67         O73   2.030       .  S
Fe67         O80   2.036       .  S
Fe67         O72   2.043       .  S
Fe67         O78   1.954       .  S
Fe68         O71   2.056       .  S
Fe68         O75   2.082       .  S
Fe68         O79   2.075       .  S
Fe68         O84   2.067       .  S
Fe68         O78   1.989       .  S
Fe69         O87   2.085       .  S
Fe69         O74   2.073       .  S
Fe69         O81   2.089       .  S
Fe69         O70   2.109       .  S
Fe69         O78   1.985       .  S
O70          C77   1.277       .  A
O71          C85   1.267       .  A
O72          C77   1.269       .  A
O73          C76   1.262       .  A
O74          C86   1.272       .  A
O75          C88   1.270       .  A
C76          O81   1.268       .  A
C76         C241   1.486       .  S
C77         C245   1.494       .  S
O79          C82   1.268       .  A
O80          C82   1.262       .  A
C82         C213   1.465       .  S
O83          C88   1.265       .  A
O84          C86   1.269       .  A
C85          O87   1.274       .  A
C85         C230   1.479       .  S
C86         C226   1.479       .  S
C88         C209   1.464       .  S
Fe89        O105   2.049       .  S
Fe89         O95   2.046       .  S
Fe89        O374   2.038       .  S
Fe89        O366   2.054       .  S
Fe89        O372   1.954       .  S
Fe90        O101   2.133       .  S
Fe90        O106   2.066       .  S
Fe90        O365   2.106   1_554  S
Fe90        O369   2.085   1_554  S
Fe90        O100   1.950       .  S
Fe91         O96   2.090   1_556  S
Fe91         O92   2.040   1_556  S
Fe91        O381   2.032       .  S
Fe91        O375   2.103       .  S
Fe91        O100   1.952   1_556  S
O92          C99   1.262       .  A
O93        Fe362   2.099       .  S
O93         C107   1.282       .  A
O94        Fe361   2.065   1_554  S
O94          C99   1.265       .  A
O95          C98   1.270       .  A
O96         C108   1.274       .  A
O97        Fe362   2.063       .  S
O97         C110   1.260       .  A
C98         O103   1.273       .  A
C98         C197   1.481       .  S
C99         C194   1.458   1_455  S
O100       Fe361   1.942   1_554  S
O101        C104   1.283       .  A
O102       Fe361   2.026   1_554  S
O102        C104   1.265       .  A
O103       Fe363   2.097       .  S
C104        C249   1.473       .  S
O105        C110   1.264       .  A
O106        C108   1.271       .  A
C107        O109   1.269       .  A
C107        C206   1.480       .  S
C108        C201   1.486       .  S
O109       Fe363   2.053       .  S
C110        C254   1.479       .  S
Fe111       O127   2.024       .  S
Fe111       O117   2.068       .  S
Fe111       O124   2.060       .  S
Fe111       O116   2.026       .  S
Fe111       O122   1.936       .  S
Fe112       O115   2.031       .  S
Fe112       O119   2.109       .  S
Fe112       O123   2.052       .  S
Fe112       O128   2.084       .  S
Fe112       O122   1.954       .  S
Fe113       O131   2.112       .  S
Fe113       O118   2.078       .  S
Fe113       O125   2.089       .  S
Fe113       O114   2.135       .  S
Fe113       O122   1.957       .  S
O114        C121   1.283       .  A
O115        C129   1.262       .  A
O116        C121   1.264       .  A
O117        C120   1.266       .  A
O118        C130   1.275       .  A
O119        C132   1.280       .  A
C120        O125   1.271       .  A
C120        C238   1.480   1_545  S
C121        C233   1.473       .  S
O123        C126   1.260       .  A
O124        C126   1.267       .  A
C126        C185   1.475       .  S
O127        C132   1.265       .  A
O128        C130   1.275       .  A
C129        O131   1.280       .  A
C129        C205   1.477       .  S
C130        C202   1.484       .  S
C132        C189   1.466       .  S
Fe133       O149   2.058       .  S
Fe133       O139   2.023       .  S
Fe133       O418   2.023       .  S
Fe133       O410   2.058       .  S
Fe133       O416   1.955       .  S
Fe134       O145   2.101       .  S
Fe134       O150   2.070       .  S
Fe134       O409   2.076   1_554  S
Fe134       O413   2.089   1_554  S
Fe134       O144   1.969       .  S
Fe135       O140   2.076       .  S
Fe135       O136   2.071       .  S
Fe135       O425   2.052   1_554  S
Fe135       O419   2.114   1_554  S
Fe135       O144   1.961       .  S
O136        C143   1.265       .  A
O137       Fe406   2.077       .  S
O137        C151   1.272       .  A
O138       Fe405   2.046       .  S
O138        C143   1.264       .  A
O139        C142   1.264       .  A
O140        C152   1.273       .  A
O141       Fe406   2.058       .  S
O141        C154   1.264       .  A
C142        O147   1.270       .  A
C142        C214   1.481       .  S
C143        C210   1.479       .  S
O144       Fe405   1.938       .  S
O145        C148   1.277       .  A
O146       Fe405   2.024       .  S
O146        C148   1.264       .  A
O147       Fe407   2.092       .  S
C148        C186   1.462       .  S
O149        C154   1.269       .  A
O150        C152   1.270       .  A
C151        O153   1.272       .  A
C151        C182   1.478       .  S
C152        C177   1.482       .  S
O153       Fe407   2.060       .  S
C154        C190   1.477       .  S
Fe155       O171   2.022       .  S
Fe155       O161   2.060       .  S
Fe155       O168   2.046       .  S
Fe155       O160   2.021       .  S
Fe155       O166   1.940       .  S
Fe156       O159   2.069       .  S
Fe156       O163   2.118       .  S
Fe156       O167   2.082       .  S
Fe156       O172   2.094       .  S
Fe156       O166   1.961       .  S
Fe157       O175   2.059       .  S
Fe157       O162   2.061       .  S
Fe157       O169   2.080       .  S
Fe157       O158   2.093       .  S
Fe157       O166   1.959       .  S
O158        C165   1.272       .  A
O159        C173   1.269       .  A
O160        C165   1.265       .  A
O161        C164   1.264       .  A
O162        C174   1.274       .  A
O163        C176   1.284       .  A
C164        O169   1.269       .  A
C164        C198   1.472   1_655  S
C165        C193   1.467       .  S
O167        C170   1.265       .  A
O168        C170   1.262       .  A
C170        C218   1.489       .  S
O171        C176   1.266       .  A
O172        C174   1.280       .  A
C173        O175   1.266       .  A
C173        C181   1.475       .  S
C174        C178   1.479       .  S
C176        C221   1.468       .  S
C177        C178   1.346       .  D
C177        H179   1.087       .  S
C178        H180   1.087       .  S
C181        C182   1.344       .  D
C181        H183   1.087       .  S
C182        H184   1.087       .  S
C185        C186   1.339       .  D
C185        H187   1.086       .  S
C186        H188   1.088       .  S
C189        C190   1.340       .  D
C189        H191   1.088       .  S
C190        H192   1.087       .  S
C193        C194   1.342       .  D
C193        H195   1.087   1_655  S
C194        H196   1.088       .  S
C197        C198   1.342       .  D
C197        H199   1.086   1_455  S
C198        H200   1.088       .  S
C201        C202   1.349       .  D
C201        H203   1.087       .  S
C202        H204   1.087       .  S
C205        C206   1.336       .  D
C205        H207   1.087       .  S
C206        H208   1.087       .  S
C209        C210   1.346   1_565  D
C209        H211   1.088       .  S
C210        H212   1.086       .  S
C213        C214   1.345   1_565  D
C213        H215   1.088   1_565  S
C214        H216   1.086       .  S
C217        C218   1.348       .  D
C217        H219   1.087       .  S
C218        H220   1.086       .  S
C221        C222   1.339       .  D
C221        H223   1.088       .  S
C222        H224   1.086       .  S
C225        C226   1.345       .  D
C225        H227   1.087       .  S
C226        H228   1.087       .  S
C229        C230   1.343       .  D
C229        H231   1.087       .  S
C230        H232   1.087       .  S
C233        C234   1.345   1_545  D
C233        H235   1.088       .  S
C234        H236   1.086       .  S
C237        C238   1.347       .  D
C237        H239   1.086   1_565  S
C238        H240   1.088       .  S
C241        C242   1.348       .  D
C241        H243   1.086       .  S
C242        H244   1.087       .  S
C245        C246   1.350       .  D
C245        H247   1.086       .  S
C246        H248   1.087       .  S
C249        C250   1.343       .  D
C249        H251   1.087       .  S
C250        H252   1.086       .  S
C253        C254   1.340       .  D
C253        H255   1.088       .  S
C254        H256   1.086       .  S
C257        C258   1.346   1_455  D
C257        H259   1.087       .  S
C258        H260   1.086       .  S
C261        C262   1.349       .  D
C261        H263   1.088       .  S
C262        H264   1.086       .  S
C265        C266   1.346       .  D
C265        H267   1.087       .  S
C266        H268   1.087       .  S
C269        C270   1.349       .  D
C269        H271   1.087       .  S
C270        H272   1.087       .  S
Fe273       O289   2.039       .  S
Fe273       O279   2.053       .  S
Fe273       O286   2.048       .  S
Fe273       O278   2.039       .  S
Fe273       O284   1.961       .  S
Fe274       O277   2.065       .  S
Fe274       O281   2.116       .  S
Fe274       O285   2.084       .  S
Fe274       O290   2.093       .  S
Fe274       O284   1.993       .  S
Fe275       O293   2.088       .  S
Fe275       O280   2.064       .  S
Fe275       O287   2.087       .  S
Fe275       O276   2.109       .  S
Fe275       O284   1.985       .  S
O276        C283   1.276       .  A
O277        C291   1.270       .  A
O278        C283   1.265       .  A
O279        C282   1.265       .  A
O280        C292   1.270       .  A
O281        C294   1.278       .  A
C282        O287   1.269       .  A
C282        C533   1.478   1_455  S
C283        C529   1.478       .  S
O285        C288   1.267       .  A
O286        C288   1.265       .  A
C288        C522   1.487       .  S
O289        C294   1.265       .  A
O290        C292   1.276       .  A
C291        O293   1.273       .  A
C291        C541   1.487       .  S
C292        C537   1.484       .  S
C294        C525   1.477       .  S
Fe295       O311   2.049       .  S
Fe295       O301   2.048       .  S
Fe296       O307   2.105   1_554  S
Fe296       O312   2.072   1_554  S
Fe296       O306   1.980       .  S
Fe297       O302   2.079   1_554  S
Fe297       O298   2.089   1_554  S
Fe297       O306   1.984       .  S
O298        C305   1.271       .  A
O299        C313   1.272       .  A
O300        C305   1.267       .  A
O301        C304   1.267       .  A
O302        C314   1.271       .  A
O303        C316   1.271       .  A
C304        O309   1.272       .  A
C304        C514   1.475       .  S
C305        C518   1.483       .  S
O307        C310   1.278       .  A
O308        C310   1.268       .  A
C310        C509   1.482       .  S
O311        C316   1.267       .  A
O312        C314   1.270       .  A
C313        O315   1.270       .  A
C313        C538   1.487       .  S
C314        C542   1.485       .  S
C316        C506   1.495       .  S
Fe317       O333   2.039       .  S
Fe317       O323   2.035       .  S
Fe318       O329   2.097       .  S
Fe318       O334   2.048       .  S
Fe318       O328   1.982       .  S
Fe319       O324   2.091       .  S
Fe319       O320   2.076       .  S
Fe319       O328   1.979       .  S
O320        C327   1.270       .  A
O321        C335   1.274       .  A
O322        C327   1.272       .  A
O323        C326   1.268       .  A
O324        C336   1.273       .  A
O325        C338   1.269       .  A
C326        O331   1.279       .  A
C326        C534   1.491       .  S
C327        C530   1.488       .  S
O329        C332   1.274       .  A
O330        C332   1.265       .  A
C332        C489   1.474       .  S
O333        C338   1.260       .  A
O334        C336   1.264       .  A
C335        O337   1.271       .  A
C335        C497   1.483       .  S
C336        C501   1.480       .  S
C338        C494   1.469       .  S
Fe339       O355   2.042       .  S
Fe339       O345   2.038       .  S
Fe339       O352   2.036       .  S
Fe339       O344   2.048       .  S
Fe339       O350   1.962       .  S
Fe340       O343   2.061       .  S
Fe340       O347   2.092       .  S
Fe340       O351   2.085       .  S
Fe340       O356   2.077       .  S
Fe340       O350   1.990       .  S
Fe341       O359   2.081       .  S
Fe341       O346   2.074       .  S
Fe341       O353   2.091       .  S
Fe341       O342   2.106       .  S
Fe341       O350   1.987       .  S
O342        C349   1.275       .  A
O343        C357   1.267       .  A
O344        C349   1.268       .  A
O345        C348   1.264       .  A
O346        C358   1.273       .  A
O347        C360   1.273       .  A
C348        O353   1.270       .  A
C348        C513   1.487       .  S
C349        C517   1.492       .  S
O351        C354   1.269       .  A
O352        C354   1.262       .  A
C354        C485   1.470       .  S
O355        C360   1.265       .  A
O356        C358   1.273       .  A
C357        O359   1.273       .  A
C357        C502   1.482       .  S
C358        C498   1.482       .  S
C360        C481   1.473       .  S
Fe361       O377   2.070       .  S
Fe361       O367   2.033       .  S
Fe362       O373   2.115       .  S
Fe362       O378   2.029       .  S
Fe362       O372   1.975       .  S
Fe363       O368   2.088       .  S
Fe363       O364   2.064       .  S
Fe363       O372   1.980       .  S
O364        C371   1.268       .  A
O365        C379   1.281       .  A
O366        C371   1.264       .  A
O367        C370   1.267       .  A
O368        C380   1.271       .  A
O369        C382   1.267       .  A
C370        O375   1.280       .  A
C370        C469   1.467       .  S
C371        C466   1.467   1_455  S
O373        C376   1.281       .  A
O374        C376   1.269       .  A
C376        C521   1.477       .  S
O377        C382   1.267       .  A
O378        C380   1.257       .  A
C379        O381   1.263       .  A
C379        C478   1.475       .  S
C380        C473   1.473       .  S
C382        C526   1.494       .  S
Fe383       O399   2.041       .  S
Fe383       O389   2.050       .  S
Fe383       O396   2.056       .  S
Fe383       O388   2.038       .  S
Fe383       O394   1.952       .  S
Fe384       O387   2.030       .  S
Fe384       O391   2.106       .  S
Fe384       O395   2.059       .  S
Fe384       O400   2.085       .  S
Fe384       O394   1.982       .  S
Fe385       O403   2.105       .  S
Fe385       O390   2.043       .  S
Fe385       O397   2.065       .  S
Fe385       O386   2.120       .  S
Fe385       O394   1.986       .  S
O386        C393   1.280       .  A
O387        C401   1.263       .  A
O388        C393   1.268       .  A
O389        C392   1.263       .  A
O390        C402   1.262       .  A
O391        C404   1.275       .  A
C392        O397   1.264       .  A
C392        C510   1.470       .  S
C393        C505   1.479       .  S
O395        C398   1.263       .  A
O396        C398   1.268       .  A
C398        C457   1.478       .  S
O399        C404   1.268       .  A
O400        C402   1.274       .  A
C401        O403   1.281       .  A
C401        C477   1.473       .  S
C402        C474   1.477       .  S
C404        C461   1.488       .  S
Fe405       O421   2.052   1_554  S
Fe405       O411   2.024   1_554  S
Fe406       O417   2.093       .  S
Fe406       O422   2.041       .  S
Fe406       O416   1.986       .  S
Fe407       O412   2.064       .  S
Fe407       O408   2.073       .  S
Fe407       O416   1.984       .  S
O408        C415   1.268       .  A
O409        C423   1.272       .  A
O410        C415   1.269       .  A
O411        C414   1.268       .  A
O412        C424   1.270       .  A
O413        C426   1.269       .  A
C414        O419   1.277       .  A
C414        C486   1.486       .  S
C415        C482   1.482       .  S
O417        C420   1.272       .  A
O418        C420   1.260       .  A
C420        C458   1.465       .  S
O421        C426   1.263       .  A
O422        C424   1.263       .  A
C423        O425   1.272       .  A
C423        C454   1.474       .  S
C424        C449   1.465       .  S
C426        C462   1.477       .  S
Fe427       O443   2.051       .  S
Fe427       O433   2.061       .  S
Fe427       O440   2.056       .  S
Fe427       O432   2.050       .  S
Fe427       O438   1.956       .  S
Fe428       O431   2.065       .  S
Fe428       O435   2.077       .  S
Fe428       O439   2.078       .  S
Fe428       O444   2.064       .  S
Fe428       O438   1.983       .  S
Fe429       O447   2.053       .  S
Fe429       O434   2.047       .  S
Fe429       O441   2.055       .  S
Fe429       O430   2.070       .  S
Fe429       O438   1.981       .  S
O430        C437   1.267       .  A
O431        C445   1.269       .  A
O432        C437   1.268       .  A
O433        C436   1.269       .  A
O434        C446   1.265       .  A
O435        C448   1.269       .  A
C436        O441   1.265       .  A
C436        C470   1.473       .  S
C437        C465   1.474       .  S
O439        C442   1.268       .  A
O440        C442   1.268       .  A
C442        C490   1.485       .  S
O443        C448   1.271       .  A
O444        C446   1.272       .  A
C445        O447   1.265       .  A
C445        C453   1.468       .  S
C446        C450   1.466       .  S
C448        C493   1.479       .  S
C449        C450   1.339       .  D
C449        H451   1.087       .  S
C450        H452   1.087       .  S
C453        C454   1.342       .  D
C453        H455   1.087       .  S
C454        H456   1.087       .  S
C457        C458   1.340       .  D
C457        H459   1.086       .  S
C458        H460   1.088       .  S
C461        C462   1.347       .  D
C461        H463   1.086       .  S
C462        H464   1.088       .  S
C465        C466   1.339       .  D
C465        H467   1.087   1_655  S
C466        H468   1.088       .  S
C469        C470   1.341   1_455  D
C469        H471   1.087       .  S
C470        H472   1.087       .  S
C473        C474   1.336       .  D
C473        H475   1.087       .  S
C474        H476   1.087       .  S
C477        C478   1.333       .  D
C477        H479   1.087       .  S
C478        H480   1.087       .  S
C481        C482   1.345   1_565  D
C481        H483   1.088       .  S
C482        H484   1.086       .  S
C485        C486   1.347   1_565  D
C485        H487   1.087   1_565  S
C486        H488   1.086       .  S
C489        C490   1.346       .  D
C489        H491   1.087       .  S
C490        H492   1.086       .  S
C493        C494   1.340       .  D
C493        H495   1.086       .  S
C494        H496   1.088       .  S
C497        C498   1.349       .  D
C497        H499   1.087       .  S
C498        H500   1.087       .  S
C501        C502   1.343       .  D
C501        H503   1.087       .  S
C502        H504   1.087       .  S
C505        C506   1.350   1_545  D
C505        H507   1.087       .  S
C506        H508   1.086       .  S
C509        C510   1.348   1_565  D
C509        H511   1.086       .  S
C510        H512   1.087   1_545  S
C513        C514   1.350       .  D
C513        H515   1.086       .  S
C514        H516   1.088       .  S
C517        C518   1.350       .  D
C517        H519   1.086       .  S
C518        H520   1.088       .  S
C521        C522   1.347       .  D
C521        H523   1.089       .  S
C522        H524   1.086       .  S
C525        C526   1.348       .  D
C525        H527   1.087       .  S
C526        H528   1.086       .  S
C529        C530   1.346   1_455  D
C529        H531   1.087       .  S
C530        H532   1.086       .  S
C533        C534   1.350       .  D
C533        H535   1.088       .  S
C534        H536   1.086       .  S
C537        C538   1.346       .  D
C537        H539   1.087       .  S
C538        H540   1.087       .  S
C541        C542   1.351       .  D
C541        H543   1.086       .  S
C542        H544   1.087       .  S
