geometry optimzed in LAMMPS
_audit_creation_date              2020-12-01 
_audit_creation_method            'lammps2cif' 
_symmetry_space_group_name_H-M    'P1' 
_symmetry_Int_Tables_number       1 
_symmetry_cell_setting            triclinic 
loop_ 
_symmetry_equiv_pos_as_xyz 
  x,y,z 
_cell_length_a                    25.91836272 
_cell_length_b                    26.415331197194874 
_cell_length_c                    40.35125077555623 
_cell_angle_alpha                 89.71610645369402 
_cell_angle_beta                  90.08495874596461 
_cell_angle_gamma                 91.3001861504642 
loop_ 
_atom_site_label 
_atom_site_type_symbol 
_atom_site_fract_x 
_atom_site_fract_y 
_atom_site_fract_z 
_atom_site_charge 
O1          O  0.85950370  0.87387661  0.19347390    -0.82200
C2          C  0.64804013  0.82927856  0.16899245     0.97100
O3          O  0.68197235  0.79594210  0.17420798    -0.71300
O4          O  0.76412871  0.79787457  0.13777433    -0.74900
Al5        Al  0.75620899  0.80102766  0.18346318     1.49000
C6          C  0.79935554  0.81681421  0.12026287     0.92400
O7          O  0.76563294  0.93701938  0.13595009    -0.81100
O8          O  0.75428472  0.93358854  0.23438915    -0.74700
Al9        Al  0.81039653  0.90319422  0.16561251     1.90100
O10         O  0.71071292  0.95923120  0.17447173    -0.73800
O11         O  0.69264752  0.85127098  0.23922819    -0.73600
O12         O  0.65723132  0.87431783  0.17699941    -0.79300
O13         O  0.74738878  0.79224918  0.22899715    -0.77500
O14         O  0.75820148  0.86825723  0.18464696    -1.13600
O15         O  0.83018740  0.79477126  0.19282764    -0.72800
C16         C  0.86496130  0.82772033  0.20023214     0.97900
C17         C  0.73168691  0.96654568  0.14638146     0.94300
Al18       Al  0.70799546  0.90154405  0.20464882     1.55600
O19         O  0.82443192  0.85542075  0.13021400    -0.77400
C20         C  0.71350711  0.81007311  0.24723497     0.98500
C21         C  0.78714868  0.96578833  0.22397445     0.93300
O22         O  0.80911647  0.95955458  0.19630310    -0.82800
O23         O  0.63980814  0.65059011  0.44514728    -0.82200
C24         C  0.85021411  0.68717957  0.41956696     0.97100
O25         O  0.81840523  0.72122728  0.42679234    -0.71300
O26         O  0.73620265  0.72430451  0.39032063    -0.74900
Al27       Al  0.74504311  0.71888276  0.43597738     1.49000
C28         C  0.70121074  0.70583640  0.37247014     0.92400
O29         O  0.72881022  0.58080189  0.38915786    -0.81100
O30         O  0.74434985  0.58706641  0.48713374    -0.74700
Al31       Al  0.68716060  0.61858059  0.41820777     1.90100
O32         O  0.78396168  0.55805992  0.42738735    -0.73800
O33         O  0.81002408  0.66597427  0.98954646    -0.73600
O34         O  0.84011223  0.64156204  0.42665917    -0.79300
O35         O  0.75473043  0.72542681  0.48152829    -0.77500
O36         O  0.74080971  0.65154451  0.43662211    -1.13600
O37         O  0.67243914  0.72809038  0.44515505    -0.72000
C38         C  0.63602782  0.69677614  0.45172903     0.97900
C39         C  0.76160456  0.55019486  0.39992254     0.94300
Al40       Al  0.79046335  0.61634508  0.45605060     1.55600
O41         O  0.67632263  0.66643624  0.38177909    -0.77400
C42         C  0.78905875  0.70614730  0.99891839     0.98500
C43         C  0.70826984  0.55723466  0.47826244     0.93300
O44         O  0.68614679  0.56401511  0.45058127    -0.82800
O45         O  0.07724631  0.81795148  0.28962666    -0.82200
C46         C  0.18835720  0.65036384  0.33776568     0.97100
O47         O  0.15367614  0.64884958  0.31559073    -0.71300
O48         O  0.06575940  0.69083605  0.33246967    -0.74900
Al49       Al  0.11164084  0.69975747  0.29571897     1.49000
C50         C  0.04286119  0.72434177  0.34869001     0.92400
O51         O  0.14734064  0.80026069  0.37259358    -0.81100
O52         O  0.22397736  0.80603769  0.28823150    -0.74700
Al53       Al  0.11542676  0.80552395  0.32965296     1.90100
O54         O  0.22523812  0.78953684  0.35480452    -0.73800
O55         O  0.22636831  0.70704449  0.27975722    -0.73600
O56         O  0.21217588  0.69116428  0.34504981    -0.79300
O57         O  0.15156073  0.70222528  0.25569063    -0.77500
O58         O  0.14690700  0.75134629  0.31400907    -1.13600
O59         O  0.06260552  0.73981932  0.27316116    -0.72800
C60         C  0.05306200  0.78628880  0.27161462     0.97900
C61         C  0.19530924  0.79995552  0.37796997     0.94300
Al62       Al  0.21576100  0.74875090  0.31672606     1.55600
O63         O  0.05876511  0.76965834  0.34774283    -0.77400
C64         C  0.19993112  0.69921976  0.25419242     0.98500
C65         C  0.20296671  0.84814316  0.29306115     0.93300
O66         O  0.16660800  0.85267846  0.31364954    -0.82800
O67         O  0.44285561  0.70262335  0.04834403    -0.82200
C68         C  0.31203901  0.85270210  0.08556587     0.97100
O69         O  0.35849795  0.84596804  0.07815662    -0.71300
O70         O  0.44589425  0.79770715  0.07533964    -0.74900
Al71       Al  0.38438211  0.80058464  0.04732335     1.49000
C72         C  0.45629477  0.77304985  0.10158663     0.92400
O73         O  0.34372247  0.67821676  0.11807897    -0.81100
O74         O  0.27618583  0.67365184  0.06095110    -0.74700
Al75       Al  0.38908854  0.69626426  0.08138926     1.90100
O76         O  0.28563464  0.73706343  0.11561371    -0.73800
O77         O  0.27284391  0.75506564  0.02485837    -0.73600
O78         O  0.27797674  0.81866633  0.07935971    -0.79300
O79         O  0.33012078  0.81510726  0.51538824    -0.77500
O80         O  0.35230543  0.74776385  0.06625945    -1.13600
O81         O  0.41451910  0.76051289  0.01414207    -0.72800
C82         C  0.44646979  0.72704845  0.02135165     0.97900
C83         C  0.30672824  0.70167929  0.13082776     0.94300
Al84       Al  0.28388638  0.74622190  0.06996246     1.55600
O85         O  0.42694480  0.73732053  0.11114492    -0.77400
C86         C  0.28950811  0.79059612  0.50706228     0.98500
C87         C  0.30860998  0.64214469  0.05039182     0.93300
O88         O  0.35628567  0.65037663  0.05316049    -0.82800
O89         O  0.14422760  0.13173303  0.19704007    -0.82200
C90         C  0.35274980  0.18582339  0.17475043     0.97100
O91         O  0.31791266  0.21784978  0.18022486    -0.71300
O92         O  0.23623973  0.21434235  0.14340984    -0.74900
Al93       Al  0.24405670  0.20893274  0.18907621     1.49000
C94         C  0.20172610  0.19483931  0.12572299     0.92400
O95         O  0.24169927  0.07444712  0.13950667    -0.81100
O96         O  0.25025483  0.07311696  0.23786662    -0.74700
Al97       Al  0.19482617  0.10564176  0.16913305     1.90100
O98         O  0.29647378  0.05399218  0.17841186    -0.73800
O99         O  0.30826231  0.15813450  0.24473695    -0.73600
O100        O  0.34603276  0.14016189  0.18280771    -0.79300
O101        O  0.25170105  0.21571574  0.23462623    -0.77500
O102        O  0.24507320  0.14165011  0.18920006    -1.13600
O103        O  0.17023510  0.21126831  0.19814219    -0.72800
C104        C  0.13665822  0.17688132  0.20516789     0.97900
C105        C  0.27620685  0.04540312  0.15038524     0.94300
Al106      Al  0.29604014  0.10940134  0.20935933     1.55600
O107        O  0.17920342  0.15419830  0.13462808    -0.77400
C108        C  0.28533003  0.19775990  0.25318212     0.98500
C109        C  0.21985714  0.03986644  0.22584579     0.93300
O110        O  0.19797300  0.04826345  0.19847007    -0.82800
O111        O  0.34968146  0.36482737  0.44697119    -0.82200
C112        C  0.14126388  0.32061603  0.42287211     0.97100
O113        O  0.17482651  0.28691659  0.42758712    -0.71300
O114        O  0.25784501  0.28857575  0.39259524    -0.74900
Al115      Al  0.24806497  0.29160164  0.43793287     1.49000
C116        C  0.29029456  0.31049596  0.37442799     0.92400
O117        O  0.25356177  0.43124065  0.39371457    -0.81100
O118        O  0.24539979  0.42026607  0.49213610    -0.74700
Al119      Al  0.29968828  0.39555682  0.42124846     1.90100
O120        O  0.20099350  0.45037262  0.43366256    -0.73800
O121        O  0.18278876  0.33901985  0.99398561    -0.73600
O122        O  0.14835322  0.36531384  0.43271423    -0.79300
O123        O  0.23863575  0.28145375  0.48319580    -0.77500
O124        O  0.24885121  0.35885960  0.44004816    -1.13600
O125        O  0.32082638  0.28595111  0.44778226    -0.72800
C126        C  0.35545957  0.31900789  0.45453460     0.97900
C127        C  0.22080093  0.46065593  0.40578915     0.94300
Al128      Al  0.19866259  0.39073623  0.46132442     1.55600
O129        O  0.31251104  0.35093653  0.38394237    -0.77400
C130        C  0.20472140  0.29851817  0.00163821     0.98500
C131        C  0.27865237  0.45271645  0.48264183     0.93300
O132        O  0.29939904  0.44888907  0.45427230    -0.82800
O133        O  0.92286676  0.32353928  0.34066470    -0.82200
C134        C  0.80458641  0.15662050  0.29313967     0.97100
O135        O  0.83883817  0.15547230  0.31525817    -0.71300
O136        O  0.92470930  0.19820338  0.29235899    -0.74900
Al137      Al  0.88471022  0.20580734  0.33190851     1.49000
C138        C  0.95106788  0.23276444  0.27790538     0.92400
O139        O  0.85078564  0.31034842  0.25854572    -0.81100
O140        O  0.77644365  0.31573619  0.34284351    -0.74700
Al141      Al  0.88417940  0.31327250  0.30071891     1.90100
O142        O  0.77299004  0.29492568  0.27678935    -0.73800
O143        O  0.77201335  0.21618720  0.35453825    -0.73600
O144        O  0.77991416  0.19670733  0.28770111    -0.79300
O145        O  0.85018010  0.20768555  0.37364631    -0.77500
O146        O  0.85028671  0.25845515  0.31609684    -1.13600
O147        O  0.93842935  0.24379286  0.35119806    -0.72800
C148        C  0.94913088  0.28995614  0.35471307     0.97900
C149        C  0.80270669  0.30891669  0.25377213     0.94300
Al150      Al  0.78123641  0.25598716  0.31552891     1.55600
O151        O  0.93928690  0.27816841  0.28162507    -0.77400
C152        C  0.80193151  0.20653785  0.37812070     0.98500
C153        C  0.79961461  0.35773426  0.33708734     0.93300
O154        O  0.83671515  0.36021975  0.31694993    -0.82800
O155        O  0.55444132  0.20622991  0.07885040    -0.82200
C156        C  0.67881365  0.36879090  0.05104866     0.97100
O157        O  0.63249574  0.35782723  0.05756136    -0.71300
O158        O  0.54937706  0.30157695  0.05661536    -0.74900
Al159      Al  0.60689255  0.30826486  0.08628937     1.49000
C160        C  0.54333127  0.28179041  0.02842356     0.92400
O161        O  0.66303708  0.19730747  0.51354302    -0.81100
O162        O  0.72256520  0.19377981  0.07570921    -0.74700
Al163      Al  0.61199259  0.20797120  0.04812431     1.90100
O164        O  0.71745168  0.26006883  0.02178615    -0.73800
O165        O  0.71711458  0.27305935  0.11295507    -0.73600
O166        O  0.71450105  0.33882213  0.05899803    -0.79300
O167        O  0.65605459  0.32714769  0.12031474    -0.77500
O168        O  0.64399729  0.26056845  0.06735112    -1.13600
O169        O  0.57639649  0.26202060  0.11662518    -0.72800
C170        C  0.54663258  0.22675149  0.10672226     0.97900
C171        C  0.70226744  0.22338912  0.50454859     0.94300
Al172      Al  0.71223009  0.26591765  0.06740337     1.55600
O173        O  0.57536543  0.25004353  0.01812521    -0.77400
C174        C  0.69662994  0.30630723  0.13015404     0.98500
C175        C  0.69103593  0.15745923  0.08218801     0.93300
O176        O  0.64368443  0.16106937  0.07596688    -0.82800
C177        C  0.70645044  0.18479151  0.44855810    -0.06200
C178        C  0.73162323  0.21182653  0.47390554    -0.00300
C179        C  0.78440572  0.22731391  0.46930350    -0.08800
C180        C  0.80703752  0.22074635  0.43812575    -0.06200
C181        C  0.77975918  0.19918970  0.41171622    -0.00300
C182        C  0.72999444  0.17737797  0.41759904    -0.08700
C183        C  0.70229207  0.14520973  0.39186390     0.61600
H184        H  0.66725693  0.17096049  0.45266928     0.12300
H185        H  0.84572822  0.23536105  0.43356093     0.12300
C186        C  0.81770641  0.25193792  0.99625912     0.61900
F187        F  0.66210035  0.11691867  0.40572256    -0.23300
F188        F  0.73649094  0.11182097  0.37808198    -0.20600
F189        F  0.68205692  0.17571125  0.36740027    -0.20300
F190        F  0.81416791  0.22322795  0.02494668    -0.20400
F191        F  0.80201621  0.30074673  0.00224068    -0.20700
F192        F  0.86936277  0.25478320  0.98751087    -0.23400
C193        C  0.72462313  0.32734798  0.22097574    -0.06200
C194        C  0.77865730  0.32143263  0.22130267    -0.00300
C195        C  0.80572265  0.32292037  0.19078884    -0.08800
C196        C  0.77685670  0.32144852  0.16131774    -0.06200
C197        C  0.72260244  0.32050034  0.16140323    -0.00300
C198        C  0.69596427  0.32720933  0.19145385    -0.08700
C199        C  0.63769996  0.33167193  0.19265268     0.61600
H200        H  0.70430696  0.32974652  0.24433532     0.12300
H201        H  0.79657494  0.31884777  0.13771589     0.12300
C202        C  0.86420553  0.32524553  0.18887317     0.61900
F203        F  0.61985844  0.33746666  0.22470079    -0.23300
F204        F  0.61437585  0.28855681  0.17968908    -0.20600
F205        F  0.62310114  0.37352978  0.17448659    -0.20300
F206        F  0.88438217  0.28092369  0.20118679    -0.20400
F207        F  0.88270885  0.36613926  0.20698725    -0.20700
F208        F  0.88148115  0.33150649  0.15661877    -0.23400
C209        C  0.42330366  0.34440437  0.49381138    -0.06200
C210        C  0.40297077  0.30628433  0.47311523    -0.00300
C211        C  0.42844802  0.25954595  0.47103392    -0.08800
C212        C  0.47550686  0.25420084  0.48822395    -0.06200
C213        C  0.49605479  0.29271556  0.00894898    -0.00300
C214        C  0.46839750  0.33826291  0.01259691    -0.08700
C215        C  0.48462512  0.38024638  0.03646243     0.61600
H216        H  0.40229957  0.37914875  0.49614993     0.12300
H217        H  0.49575491  0.21893377  0.48666214     0.12300
C218        C  0.40606628  0.21541829  0.45132277     0.61900
F219        F  0.45521642  0.42301965  0.03271113    -0.23300
F220        F  0.53543370  0.39459829  0.03100107    -0.20600
F221        F  0.47851979  0.36354828  0.06879842    -0.20300
F222        F  0.39819839  0.23001459  0.41876884    -0.20400
F223        F  0.35962147  0.19953748  0.46517628    -0.20700
F224        F  0.43844311  0.17445898  0.45135474    -0.23400
C225        C  0.04259202  0.28578290  0.35712704    -0.06200
C226        C  0.99727709  0.30240038  0.37212081    -0.00300
C227        C  0.99880797  0.32265591  0.40429413    -0.08800
C228        C  0.04666530  0.32597268  0.42067485    -0.06200
C229        C  0.09222825  0.30919280  0.40572384    -0.00300
C230        C  0.09047322  0.28941048  0.37320996    -0.08700
C231        C  0.13885854  0.27426598  0.35498551     0.61600
H232        H  0.03993110  0.26938551  0.33263222     0.12300
H233        H  0.04902053  0.34208327  0.44524904     0.12300
C234        C  0.95003639  0.33959817  0.42115707     0.61900
F235        F  0.12859874  0.26024318  0.32256100    -0.23300
F236        F  0.16098279  0.23371858  0.37094300    -0.20600
F237        F  0.17345259  0.31477535  0.35416152    -0.20300
F238        F  0.91470985  0.29972744  0.42255673    -0.20400
F239        F  0.92901567  0.37895071  0.40334421    -0.20700
F240        F  0.95941548  0.35598084  0.45318186    -0.23400
C241        C  0.47819635  0.25192604  0.14616777    -0.06200
C242        C  0.49902833  0.21403987  0.12591894    -0.00300
C243        C  0.47189010  0.16716600  0.12269317    -0.08800
C244        C  0.42358648  0.16131380  0.13804837    -0.06200
C245        C  0.40220107  0.19928134  0.15780546    -0.00300
C246        C  0.43046619  0.24515132  0.16260390    -0.08700
C247        C  0.41136948  0.28608066  0.18552599     0.61600
H248        H  0.49919696  0.28762362  0.14858382     0.12300
H249        H  0.40173962  0.12636268  0.13451937     0.12300
C250        C  0.49387797  0.12263961  0.10403118     0.61900
F251        F  0.44760461  0.32494829  0.18941349    -0.23300
F252        F  0.40106677  0.26563312  0.21651900    -0.20600
F253        F  0.36695142  0.30661548  0.17270083    -0.20300
F254        F  0.54434946  0.11520650  0.11385113    -0.20400
F255        F  0.49217140  0.13166403  0.07027240    -0.20700
F256        F  0.46626671  0.07813891  0.11022935    -0.23400
C257        C  0.01028757  0.16915869  0.25538020    -0.06200
C258        C  0.99774234  0.22031097  0.25781785    -0.00300
C259        C  0.03171557  0.25735900  0.24292847    -0.08800
C260        C  0.07552493  0.24102061  0.22563520    -0.06200
C261        C  0.08798139  0.18978817  0.22319993    -0.00300
C262        C  0.05477795  0.15310755  0.23892969    -0.08700
C263        C  0.06491549  0.09686726  0.23832582     0.61600
H264        H  0.98476902  0.14124202  0.26681152     0.12300
H265        H  0.10105088  0.26868768  0.21396518     0.12300
C266        C  0.02357732  0.31414905  0.24541312     0.61900
F267        F  0.03091800  0.06910849  0.25801320    -0.23300
F268        F  0.11397822  0.08770111  0.25013861    -0.20600
F269        F  0.05921390  0.08001178  0.20612201    -0.20300
F270        F  0.02540877  0.32884533  0.27825971    -0.20400
F271        F  0.97657788  0.32626335  0.23165809    -0.20700
F272        F  0.06116853  0.34215521  0.22867007    -0.23400
C273        C  0.19078312  0.19238941  0.06489144    -0.06200
C274        C  0.18933846  0.22033932  0.09417692    -0.00300
C275        C  0.18160646  0.27336521  0.09256751    -0.08800
C276        C  0.18407229  0.29780394  0.06156314    -0.06200
C277        C  0.19182544  0.27043851  0.03246169    -0.00300
C278        C  0.19067702  0.21659159  0.03378509    -0.08700
C279        C  0.18884227  0.18440484  0.50267378     0.61600
H280        H  0.19465948  0.15169066  0.06648107     0.12300
H281        H  0.18242244  0.33868446  0.06007802     0.12300
C282        C  0.16972106  0.30389050  0.12331188     0.61900
F283        F  0.17074588  0.13575934  0.50953775    -0.23300
F284        F  0.23773284  0.18132969  0.48930390    -0.20600
F285        F  0.15587671  0.20521650  0.47956802    -0.20300
F286        F  0.21339042  0.31001854  0.14265491    -0.20400
F287        F  0.13144270  0.27919797  0.14148141    -0.20700
F288        F  0.15231893  0.35154951  0.11520400    -0.23400
C289        C  0.30886539  0.23271126  0.34370141    -0.06200
C290        C  0.30181602  0.28546027  0.34251243    -0.00300
C291        C  0.29628859  0.30959520  0.31146061    -0.08800
C292        C  0.29484966  0.27939502  0.28274456    -0.06200
C293        C  0.29766067  0.22607013  0.28416077    -0.00300
C294        C  0.30649647  0.20236185  0.31507614    -0.08700
C295        C  0.30961499  0.14522911  0.31827842     0.61600
H296        H  0.31320566  0.21498728  0.36776045     0.12300
H297        H  0.28919783  0.29719113  0.25883401     0.12300
C298        C  0.28902394  0.36634613  0.30876771     0.61900
F299        F  0.31625703  0.13003123  0.35085835    -0.23300
F300        F  0.35101610  0.12819744  0.30023170    -0.20600
F301        F  0.26448511  0.12272206  0.30657613    -0.20300
F302        F  0.33189815  0.39163258  0.32144928    -0.20400
F303        F  0.24584677  0.37999702  0.32637968    -0.20700
F304        F  0.28253858  0.38184437  0.27622303    -0.23400
C305        C  0.33672581  0.92064713  0.12438601    -0.06200
C306        C  0.29969614  0.90132349  0.10210447    -0.00300
C307        C  0.25618211  0.93078544  0.09448037    -0.08800
C308        C  0.25155675  0.97860607  0.10955648    -0.06200
C309        C  0.28823634  0.99760867  0.13244248    -0.00300
C310        C  0.33193671  0.96780063  0.13994564    -0.08700
C311        C  0.37368356  0.98445074  0.16439255     0.61600
H312        H  0.36965554  0.89759727  0.13003603     0.12300
H313        H  0.21797510  0.00088583  0.10427796     0.12300
C314        C  0.21507018  0.91234539  0.07039579     0.61900
F315        F  0.41596973  0.95340862  0.16346104    -0.23300
F316        F  0.35435458  0.98261504  0.19632226    -0.20600
F317        F  0.39095791  0.03305862  0.15692757    -0.20300
F318        F  0.19066488  0.86945444  0.08314380    -0.20400
F319        F  0.23751930  0.90135964  0.04027869    -0.20700
F320        F  0.17785993  0.94824424  0.06484907    -0.23400
C321        C  0.29335781  0.54964289  0.05235870    -0.06200
C322        C  0.29251833  0.59480845  0.03392264    -0.00300
C323        C  0.28848078  0.59285245  0.49905905    -0.08800
C324        C  0.28696507  0.54544595  0.48356145    -0.06200
C325        C  0.28668970  0.50000505  0.50181646    -0.00300
C326        C  0.28921343  0.50188268  0.03692115    -0.08700
C327        C  0.28916566  0.45403625  0.05792435     0.61600
H328        H  0.29805035  0.55220284  0.07901681     0.12300
H329        H  0.28376807  0.54356162  0.45678513     0.12300
C330        C  0.28452516  0.64083479  0.47847765     0.61900
F331        F  0.30062803  0.46433478  0.09077216    -0.23300
F332        F  0.32568652  0.42123712  0.04617278    -0.20600
F333        F  0.24096712  0.43060345  0.05683356    -0.20300
F334        F  0.32620387  0.67294164  0.48452697    -0.20400
F335        F  0.23980278  0.66498107  0.48686656    -0.20700
F336        F  0.28296194  0.63087955  0.44483112    -0.23400
C337        C  0.17753862  0.90443533  0.24904064    -0.06200
C338        C  0.21529879  0.89233694  0.27225211    -0.00300
C339        C  0.25680502  0.92666375  0.27815740    -0.08800
C340        C  0.25516879  0.97498870  0.26362661    -0.06200
C341        C  0.21574450  0.98861336  0.24141844    -0.00300
C342        C  0.17806372  0.95098843  0.23223848    -0.08700
C343        C  0.13840619  0.95854282  0.20506133     0.61600
H344        H  0.14690193  0.87669419  0.24447080     0.12300
H345        H  0.28637976  0.00180553  0.26897650     0.12300
C346        C  0.30414267  0.91430426  0.29839094     0.61900
F347        F  0.10421572  0.91779359  0.20236798    -0.23300
F348        F  0.16287159  0.96450960  0.17480446    -0.20600
F349        F  0.10989225  0.00039461  0.21191242    -0.20300
F350        F  0.30294468  0.86534983  0.31042792    -0.20400
F351        F  0.30871325  0.94748414  0.32468846    -0.20700
F352        F  0.34742349  0.91998360  0.27856798    -0.23400
C353        C  0.29078884  0.82049580  0.44893202    -0.06200
C354        C  0.26185781  0.80174893  0.47568818    -0.00300
C355        C  0.20793337  0.79192768  0.47128685    -0.08800
C356        C  0.18709711  0.79406950  0.43910175    -0.06200
C357        C  0.21735293  0.80813799  0.41170643    -0.00300
C358        C  0.26919449  0.82528416  0.41716064    -0.08700
C359        C  0.30159983  0.84997763  0.39009725     0.61600
H360        H  0.33132015  0.82979843  0.45276160     0.12300
H361        H  0.14712427  0.78276814  0.43500003     0.12300
C362        C  0.17153457  0.78123810  0.00018631     0.61900
F363        F  0.34451603  0.87535092  0.40285075    -0.23300
F364        F  0.27228530  0.88502344  0.37344946    -0.20600
F365        F  0.31874423  0.81376527  0.36837560    -0.20300
F366        F  0.18103186  0.81576813  0.02512417    -0.20400
F367        F  0.17783429  0.73285708  0.01236656    -0.20700
F368        F  0.12036439  0.78550608  0.99087963    -0.23400
C369        C  0.28069934  0.70546085  0.22198488    -0.06200
C370        C  0.22824652  0.68979332  0.22281060    -0.00300
C371        C  0.20570650  0.66818059  0.19393302    -0.08800
C372        C  0.23503613  0.66814844  0.16456568    -0.06200
C373        C  0.28563197  0.68819443  0.16347681    -0.00300
C374        C  0.30961630  0.70554381  0.19270227    -0.08700
C375        C  0.36432064  0.72727098  0.19240962     0.61600
H376        H  0.29847040  0.72092664  0.24413924     0.12300
H377        H  0.21752514  0.65535831  0.14157752     0.12300
C378        C  0.15104884  0.64640667  0.19349218     0.61900
F379        F  0.38124441  0.74023015  0.22388169    -0.23300
F380        F  0.36662018  0.77031072  0.17275233    -0.20600
F381        F  0.39738410  0.69179383  0.17990404    -0.20300
F382        F  0.11639289  0.68508979  0.19574503    -0.20400
F383        F  0.14377354  0.61323535  0.21978936    -0.20700
F384        F  0.14059434  0.62010236  0.16455558    -0.23400
C385        C  0.17653083  0.59501846  0.38613971    -0.06200
C386        C  0.19996636  0.60331361  0.35545664    -0.00300
C387        C  0.22949644  0.56516579  0.34096174    -0.08800
C388        C  0.23447243  0.51901742  0.35799967    -0.06200
C389        C  0.20963335  0.50940648  0.38856088    -0.00300
C390        C  0.17879965  0.54806729  0.40258051    -0.08700
C391        C  0.14703630  0.54059734  0.43403649     0.61600
H392        H  0.15545912  0.62580560  0.39683821     0.12300
H393        H  0.25796822  0.48997779  0.34728555     0.12300
C394        C  0.25628351  0.57382620  0.30791272     0.61900
F395        F  0.11650600  0.58171635  0.44053382    -0.23300
F396        F  0.17903623  0.53428452  0.46105801    -0.20600
F397        F  0.11445347  0.49871195  0.43069149    -0.20300
F398        F  0.28887560  0.61590561  0.30992212    -0.20400
F399        F  0.21996860  0.58172060  0.28340646    -0.20700
F400        F  0.28539454  0.53284168  0.29883398    -0.23400
C401        C  0.54125033  0.69136301  0.45426398    -0.06200
C402        C  0.58732492  0.71262074  0.46712931    -0.00300
C403        C  0.58593364  0.74117283  0.99677271    -0.08800
C404        C  0.53849683  0.74546352  0.01324571    -0.06200
C405        C  0.49312081  0.72238762  0.00103507    -0.00300
C406        C  0.49387831  0.69587974  0.47075793    -0.08700
C407        C  0.44522768  0.67160721  0.45660450     0.61600
H408        H  0.54303394  0.66974372  0.43159801     0.12300
H409        H  0.53656403  0.76594525  0.03636942     0.12300
C410        C  0.63450023  0.76409027  0.01211074     0.61900
F411        F  0.45451622  0.64669737  0.42716777    -0.23300
F412        F  0.40950297  0.70857837  0.45042529    -0.20600
F413        F  0.42500176  0.63675641  0.47904031    -0.20300
F414        F  0.65726481  0.79838910  0.99030868    -0.20400
F415        F  0.66851155  0.72606038  0.01938150    -0.20700
F416        F  0.62430604  0.78947516  0.04123295    -0.23400
C417        C  0.93466731  0.65912047  0.39852770    -0.06200
C418        C  0.90020659  0.69925273  0.40263142    -0.00300
C419        C  0.91374945  0.74756525  0.38926320    -0.08800
C420        C  0.96103464  0.75336029  0.37253153    -0.06200
C421        C  0.99474310  0.71290455  0.36773512    -0.00300
C422        C  0.98088903  0.66453988  0.38061120    -0.08700
C423        C  0.01389391  0.61852383  0.37544019     0.61600
H424        H  0.92461066  0.62239224  0.40886108     0.12300
H425        H  0.97145897  0.79001967  0.36211457     0.12300
C426        C  0.87879014  0.79291767  0.39173045     0.61900
F427        F  0.99597971  0.57674969  0.39321973    -0.23300
F428        F  0.06366085  0.62917806  0.38573534    -0.20600
F429        F  0.01383400  0.60574316  0.34224789    -0.20300
F430        F  0.89977594  0.83554556  0.37634768    -0.20400
F431        F  0.87095473  0.80490199  0.42465214    -0.20700
F432        F  0.83204649  0.78194909  0.37649445    -0.23400
C433        C  0.72896444  0.47006830  0.37446646    -0.06200
C434        C  0.77116368  0.50259177  0.38192800    -0.00300
C435        C  0.82158049  0.48758366  0.37416271    -0.08800
C436        C  0.82845970  0.43930951  0.36077088    -0.06200
C437        C  0.78670145  0.40580124  0.35403888    -0.00300
C438        C  0.73581195  0.42169775  0.36042126    -0.08700
C439        C  0.68918147  0.38861744  0.35169436     0.61600
H440        H  0.69054560  0.48254687  0.38034379     0.12300
H441        H  0.86721062  0.42729805  0.35540975     0.12300
C442        C  0.86787604  0.52304851  0.37899037     0.61900
F443        F  0.64335866  0.41307521  0.35736032    -0.23300
F444        F  0.68901734  0.34499884  0.37077526    -0.20600
F445        F  0.69081064  0.37584273  0.31849672    -0.20300
F446        F  0.87841329  0.52815592  0.41239894    -0.20400
F447        F  0.85769000  0.57004462  0.36548334    -0.20700
F448        F  0.91153433  0.50515934  0.36364246    -0.23400
C449        C  0.73362026  0.49733246  0.02291574    -0.06200
C450        C  0.69701749  0.51082796  0.49853307    -0.00300
C451        C  0.65462589  0.47717803  0.49216296    -0.08800
C452        C  0.65226161  0.43071553  0.00920174    -0.06200
C453        C  0.68904957  0.41702873  0.03301941    -0.00300
C454        C  0.73042104  0.45092161  0.04028526    -0.08700
C455        C  0.77071164  0.43851333  0.06627225     0.61600
H456        H  0.76596445  0.52283736  0.02773021     0.12300
H457        H  0.62152989  0.40381182  0.00349091     0.12300
C458        C  0.61147433  0.48945568  0.46798048     0.61900
F459        F  0.80550479  0.47835366  0.07110247    -0.23300
F460        F  0.79821249  0.39701416  0.05631650    -0.20600
F461        F  0.74690345  0.42787390  0.09625704    -0.20300
F462        F  0.62958704  0.48805059  0.43579660    -0.20400
F463        F  0.59263734  0.53691013  0.47473143    -0.20700
F464        F  0.57049260  0.45506655  0.47028990    -0.23400
C465        C  0.51403368  0.83636866  0.12785042    -0.06200
C466        C  0.50393981  0.78551958  0.12060850    -0.00300
C467        C  0.54007767  0.74859406  0.13043308    -0.08800
C468        C  0.58609631  0.76469057  0.14624132    -0.06200
C469        C  0.59695540  0.81591576  0.15324475    -0.00300
C470        C  0.55901236  0.85255084  0.14470725    -0.08700
C471        C  0.56419498  0.90854541  0.15337078     0.61600
H472        H  0.48548934  0.86350385  0.12036904     0.12300
H473        H  0.61430445  0.73695687  0.15316956     0.12300
C474        C  0.53158665  0.69257509  0.12320420     0.61900
F475        F  0.52181439  0.93565160  0.14326959    -0.23300
F476        F  0.60686027  0.93008399  0.13790711    -0.20600
F477        F  0.56845556  0.91397979  0.18735390    -0.20300
F478        F  0.52555953  0.68556763  0.08951156    -0.20400
F479        F  0.48824666  0.67431298  0.13964318    -0.20700
F480        F  0.57281113  0.66396003  0.13347986    -0.23400
C481        C  0.95798965  0.80632983  0.20039715    -0.06200
C482        C  0.91243134  0.81379244  0.21832469    -0.00300
C483        C  0.91480314  0.81667524  0.25329579    -0.08800
C484        C  0.96267446  0.81093748  0.26929779    -0.06200
C485        C  0.00807400  0.80187286  0.25156698    -0.00300
C486        C  0.00593845  0.79989222  0.21640514    -0.08700
C487        C  0.05262591  0.79265946  0.19448269     0.61600
H488        H  0.95622749  0.80619826  0.17354203     0.12300
H489        H  0.96462193  0.81121897  0.29610560     0.12300
C490        C  0.86641168  0.82394518  0.27369184     0.61900
F491        F  0.05850712  0.83407773  0.17363501    -0.23300
F492        F  0.04470795  0.74998279  0.17527373    -0.20600
F493        F  0.09795829  0.78756325  0.21214921    -0.20300
F494        F  0.83409267  0.78201567  0.27005196    -0.20400
F495        F  0.84103253  0.86666457  0.26325028    -0.20700
F496        F  0.87750175  0.82956233  0.30702888    -0.23400
C497        C  0.80928123  0.78599328  0.02868445    -0.06200
C498        C  0.80428780  0.73273130  0.02992172    -0.00300
C499        C  0.80752198  0.70777677  0.06089307    -0.08800
C500        C  0.81007472  0.73730787  0.08978809    -0.06200
C501        C  0.81062532  0.79058341  0.08870928    -0.00300
C502        C  0.81344853  0.81547548  0.05766882    -0.08700
C503        C  0.81886325  0.87262182  0.05522540     0.61600
H504        H  0.80817329  0.80450110  0.00467002     0.12300
H505        H  0.80934871  0.71885618  0.11384920     0.12300
C506        C  0.80559540  0.65049225  0.06364533     0.61900
F507        F  0.81929165  0.88936112  0.02265841    -0.23300
F508        F  0.86463252  0.88838407  0.06997078    -0.20600
F509        F  0.77816606  0.89478005  0.07115178    -0.20300
F510        F  0.84750634  0.63083335  0.04736539    -0.20400
F511        F  0.76044196  0.63164874  0.04966782    -0.20700
F512        F  0.80723131  0.63420593  0.09628551    -0.23400
C513        C  0.69064002  0.80932872  0.30721624    -0.06200
C514        C  0.69947462  0.78190096  0.27824565    -0.00300
C515        C  0.69748752  0.72785502  0.27987966    -0.08800
C516        C  0.69398350  0.70372980  0.31110063    -0.06200
C517        C  0.69110907  0.73161296  0.34034989    -0.00300
C518        C  0.68572429  0.78502222  0.33827750    -0.08700
C519        C  0.67549186  0.81665467  0.36876475     0.61600
H520        H  0.69033071  0.85031321  0.30569917     0.12300
H521        H  0.69668101  0.66291765  0.31298485     0.12300
C522        C  0.69912822  0.69522748  0.24901728     0.61900
F523        F  0.65681716  0.86366425  0.36021892    -0.23300
F524        F  0.72061813  0.82399788  0.38654327    -0.20600
F525        F  0.63891368  0.79257450  0.38861306    -0.20300
F526        F  0.74876275  0.69477207  0.23657135    -0.20400
F527        F  0.66592953  0.71380518  0.22523617    -0.20700
F528        F  0.68390676  0.64564563  0.25574888    -0.23400
C529        C  0.74788623  0.03824406  0.25187959    -0.06200
C530        C  0.79324985  0.01452872  0.24165951    -0.00300
C531        C  0.84154384  0.03895217  0.24700279    -0.08800
C532        C  0.84264466  0.08654333  0.26248861    -0.06200
C533        C  0.79738454  0.11008384  0.27309964    -0.00300
C534        C  0.74906309  0.08564860  0.26772383    -0.08700
C535        C  0.69939608  0.10810995  0.28000091     0.61600
H536        H  0.71117490  0.01924211  0.24718210     0.12300
H537        H  0.87937612  0.10567879  0.26695370     0.12300
C538        C  0.89176105  0.01405571  0.23794897     0.61900
F539        F  0.65699995  0.07677928  0.27367859    -0.23300
F540        F  0.69149543  0.15410428  0.26455899    -0.20600
F541        F  0.70251972  0.11516203  0.31380506    -0.20300
F542        F  0.89634110  0.01086806  0.20391472    -0.20400
F543        F  0.89301387  0.96600505  0.25166197    -0.20700
F544        F  0.93400018  0.04128856  0.24973796    -0.23400
C545        C  0.69386803  0.06398804  0.08093486    -0.06200
C546        C  0.70819887  0.10924593  0.09707401    -0.00300
C547        C  0.73033190  0.10694061  0.12908329    -0.08800
C548        C  0.73685525  0.05919525  0.14400252    -0.06200
C549        C  0.72181009  0.01398186  0.12808556    -0.00300
C550        C  0.70010228  0.01617291  0.09584150    -0.08700
C551        C  0.68053358  0.97038037  0.07654007     0.61600
H552        H  0.67591318  0.06613943  0.05668030     0.12300
H553        H  0.75372401  0.05673624  0.16849968     0.12300
C554        C  0.74488116  0.15470010  0.14795543     0.61900
F555        F  0.62883463  0.97617728  0.06920014    -0.23300
F556        F  0.68527802  0.92521765  0.09352622    -0.20600
F557        F  0.70764063  0.96726948  0.04714577    -0.20300
F558        F  0.70192272  0.18430320  0.15146397    -0.20400
F559        F  0.78278053  0.18160964  0.13085126    -0.20700
F560        F  0.76362507  0.14407374  0.17931872    -0.23400
O561        O  0.85939668  0.87399481  0.69348360    -0.82200
C562        C  0.64799084  0.82919558  0.66899565     0.97100
O563        O  0.68194758  0.79588704  0.67421660    -0.71300
O564        O  0.76411148  0.79784841  0.63779873    -0.74900
Al565      Al  0.75617106  0.80104130  0.68348512     1.49000
C566        C  0.79932190  0.81680056  0.62028044     0.92400
O567        O  0.76547945  0.93698013  0.63590792    -0.81100
O568        O  0.75413546  0.93368287  0.73435291    -0.74700
Al569      Al  0.81027153  0.90323282  0.66559422     1.90100
O570        O  0.71053914  0.95919418  0.67441810    -0.73800
O571        O  0.69256481  0.85129270  0.73923260    -0.73600
O572        O  0.65713868  0.87424157  0.67700045    -0.79300
O573        O  0.74732904  0.79228515  0.72901810    -0.77500
O574        O  0.75810518  0.86827453  0.68464355    -1.13600
O575        O  0.83015244  0.79486287  0.69286879    -0.72800
C576        C  0.86489090  0.82785124  0.70026869     0.97900
C577        C  0.73152021  0.96650204  0.64632855     0.94300
Al578      Al  0.70787208  0.90154454  0.70463006     1.55600
O579        O  0.82436823  0.85543110  0.63022173    -0.77400
C580        C  0.71342718  0.81009730  0.74724470     0.98500
C581        C  0.78694362  0.96591491  0.72390404     0.93300
O582        O  0.80892396  0.95963502  0.69624322    -0.82800
O583        O  0.63974086  0.65065178  0.94520990    -0.82200
C584        C  0.85013923  0.68719051  0.91955667     0.97100
O585        O  0.81835191  0.72124268  0.92680917    -0.71300
O586        O  0.73617280  0.72429530  0.89031670    -0.74900
Al587      Al  0.74498481  0.71890805  0.93597670     1.49000
C588        C  0.70112559  0.70587445  0.87248985     0.92400
O589        O  0.72865139  0.58085468  0.88917321    -0.81100
O590        O  0.74430688  0.58711188  0.98714033    -0.74700
Al591      Al  0.68704880  0.61863006  0.91824438     1.90100
O592        O  0.78385521  0.55808226  0.92737014    -0.73800
O593        O  0.81006834  0.66593871  0.48956880    -0.73600
O594        O  0.84001620  0.64157002  0.92662526    -0.79300
O595        O  0.75465264  0.72544581  0.98153014    -0.77500
O596        O  0.74072888  0.65157474  0.93663058    -1.13600
O597        O  0.67237773  0.72815071  0.94513199    -0.72000
C598        C  0.63596737  0.69685430  0.95174377     0.97900
C599        C  0.76146786  0.55025135  0.89990994     0.94300
Al600      Al  0.79039166  0.61636919  0.95603769     1.55600
O601        O  0.67618959  0.66651044  0.88182064    -0.77400
C602        C  0.78911277  0.70611993  0.49893016     0.98500
C603        C  0.70822333  0.55727245  0.97829030     0.93300
O604        O  0.68606101  0.56404735  0.95061948    -0.82800
O605        O  0.07719579  0.81798933  0.78965586    -0.82200
C606        C  0.18826014  0.65030935  0.83772964     0.97100
O607        O  0.15356980  0.64882560  0.81555798    -0.71300
O608        O  0.06565863  0.69085092  0.83243721    -0.74900
Al609      Al  0.11155534  0.69977606  0.79569454     1.49000
C610        C  0.04278132  0.72435003  0.84867673     0.92400
O611        O  0.14729357  0.80022832  0.87260735    -0.81100
O612        O  0.22392224  0.80601076  0.78824671    -0.74700
Al613      Al  0.11537866  0.80551886  0.82967006     1.90100
O614        O  0.22518002  0.78946465  0.85481420    -0.73800
O615        O  0.22628914  0.70703129  0.77974217    -0.73600
O616        O  0.21208687  0.69110036  0.84502740    -0.79300
O617        O  0.15148758  0.70225377  0.75566562    -0.77500
O618        O  0.14683761  0.75133625  0.81400720    -1.13600
O619        O  0.06254146  0.73988337  0.77314334    -0.72800
C620        C  0.05300795  0.78635846  0.77162379     0.97900
C621        C  0.19526179  0.79990752  0.87797980     0.94300
Al622      Al  0.21568899  0.74871089  0.81672374     1.55600
O623        O  0.05871002  0.76965947  0.84775370    -0.77400
C624        C  0.19985827  0.69923624  0.75417163     0.98500
C625        C  0.20292299  0.84812010  0.79307895     0.93300
O626        O  0.16657308  0.85266574  0.81367259    -0.82800
O627        O  0.44286511  0.70247767  0.54833704    -0.82200
C628        C  0.31215433  0.85266434  0.58553812     0.97100
O629        O  0.35860804  0.84589486  0.57813039    -0.71300
O630        O  0.44594614  0.79754372  0.57531924    -0.74900
Al631      Al  0.38444907  0.80047142  0.54730155     1.49000
C632        C  0.45632115  0.77288659  0.60157102     0.92400
O633        O  0.34368341  0.67812881  0.61806417    -0.81100
O634        O  0.27616697  0.67363338  0.56095173    -0.74700
Al635      Al  0.38907798  0.69615590  0.58137689     1.90100
O636        O  0.28567115  0.73704762  0.61560962    -0.73800
O637        O  0.27287574  0.75503469  0.52485166    -0.73600
O638        O  0.27807089  0.81864453  0.57934345    -0.79300
O639        O  0.33004660  0.81518492  0.01540954    -0.77500
O640        O  0.35233576  0.74768469  0.56624751    -1.13600
O641        O  0.41455021  0.76035882  0.51412286    -0.72800
C642        C  0.44649176  0.72688824  0.52133919     0.97900
C643        C  0.30671783  0.70163043  0.63081836     0.94300
Al644      Al  0.28392014  0.74619606  0.56995591     1.55600
O645        O  0.42695310  0.73717548  0.61113433    -0.77400
C646        C  0.28945809  0.79064256  0.00707494     0.98500
C647        C  0.30857355  0.64212154  0.55037749     0.93300
O648        O  0.35625242  0.65032169  0.55314046    -0.82800
O649        O  0.14417159  0.13157159  0.69696416    -0.82200
C650        C  0.35266582  0.18581979  0.67478779     0.97100
O651        O  0.31781344  0.21782548  0.68027451    -0.71300
O652        O  0.23620684  0.21428765  0.64339656    -0.74900
Al653      Al  0.24394649  0.20884342  0.68906920     1.49000
C654        C  0.20172092  0.19477948  0.62568847     0.92400
O655        O  0.24176442  0.07440231  0.63946756    -0.81100
O656        O  0.25019057  0.07305200  0.73783967    -0.74700
Al657      Al  0.19482741  0.10554058  0.66907563     1.90100
O658        O  0.29648994  0.05393717  0.67840062    -0.73800
O659        O  0.30814924  0.15810106  0.74474625    -0.73600
O660        O  0.34597238  0.14014807  0.68282565    -0.79300
O661        O  0.25147691  0.21556212  0.73462666    -0.77500
O662        O  0.24501982  0.14157013  0.68917377    -1.13600
O663        O  0.17011651  0.21112173  0.69807964    -0.72800
C664        C  0.13656206  0.17671023  0.70509374     0.97900
C665        C  0.27626690  0.04536222  0.65035686     0.94300
Al666      Al  0.29598697  0.10935382  0.70935552     1.55600
O667        O  0.17921633  0.15411499  0.63457213    -0.77400
C668        C  0.28512817  0.19767577  0.75319515     0.98500
C669        C  0.21982773  0.03978445  0.72580415     0.93300
O670        O  0.19798299  0.04815781  0.69841100    -0.82800
O671        O  0.34981151  0.36487984  0.94696997    -0.82200
C672        C  0.14137770  0.32036603  0.92288347     0.97100
O673        O  0.17496964  0.28672797  0.92773943    -0.71300
O674        O  0.25804196  0.28834850  0.89274218    -0.74900
Al675      Al  0.24825375  0.29154660  0.93805755     1.49000
C676        C  0.29033482  0.31035449  0.87450549     0.92400
O677        O  0.25361486  0.43117514  0.89367699    -0.81100
O678        O  0.24532515  0.42030452  0.99209174    -0.74700
Al679      Al  0.29974788  0.39553065  0.92124071     1.90100
O680        O  0.20098951  0.45027337  0.93358869    -0.73800
O681        O  0.18280965  0.33907442  0.49401976    -0.73600
O682        O  0.14846309  0.36513344  0.93260633    -0.79300
O683        O  0.23889914  0.28159729  0.98333412    -0.77500
O684        O  0.24894743  0.35881539  0.94006172    -1.13600
O685        O  0.32101656  0.28599415  0.94788195    -0.72800
C686        C  0.35564149  0.31908293  0.95456824     0.97900
C687        C  0.22082366  0.46057333  0.90572886     0.94300
Al688      Al  0.19867515  0.39066655  0.96126565     1.55600
O689        O  0.31250476  0.35085926  0.88395690    -0.77400
C690        C  0.20461554  0.29847169  0.50158710     0.98500
C691        C  0.27861379  0.45273765  0.98261272     0.93300
O692        O  0.29941366  0.44888893  0.95425758    -0.82800
O693        O  0.92299016  0.32317939  0.84062884    -0.82200
C694        C  0.80413759  0.15682188  0.79293765     0.97100
O695        O  0.83831014  0.15551086  0.81509500    -0.71300
O696        O  0.92427546  0.19797022  0.79201665    -0.74900
Al697      Al  0.88446659  0.20564871  0.83165258     1.49000
C698        C  0.95082801  0.23252770  0.77769274     0.92400
O699        O  0.85085212  0.31054347  0.75846832    -0.81100
O700        O  0.77653191  0.31590651  0.84276074    -0.74700
Al701      Al  0.88426179  0.31321490  0.80065304     1.90100
O702        O  0.77301259  0.29524090  0.77668881    -0.73800
O703        O  0.77191010  0.21636914  0.85439660    -0.73600
O704        O  0.77961776  0.19699663  0.78750568    -0.79300
O705        O  0.85010875  0.20768699  0.87343972    -0.77500
O706        O  0.85019946  0.25846239  0.81594046    -1.13600
O707        O  0.93844568  0.24333311  0.85085350    -0.72800
C708        C  0.94927633  0.28943940  0.85450452     0.97900
C709        C  0.80277162  0.30918550  0.75368055     0.94300
Al710      Al  0.78115271  0.25620565  0.81539797     1.55600
O711        O  0.93922288  0.27795888  0.78152257    -0.77400
C712        C  0.80186977  0.20672146  0.87796351     0.98500
C713        C  0.79978331  0.35786818  0.83703623     0.93300
O714        O  0.83695571  0.36027298  0.81694885    -0.82800
O715        O  0.55428014  0.20626150  0.57889070    -0.82200
C716        C  0.67868405  0.36874776  0.55097418     0.97100
O717        O  0.63236386  0.35780363  0.55749113    -0.71300
O718        O  0.54921783  0.30156328  0.55659419    -0.74900
Al719      Al  0.60677024  0.30827851  0.58625667     1.49000
C720        C  0.54313039  0.28170760  0.52842224     0.92400
O721        O  0.66326907  0.19747644  0.01350531    -0.81100
O722        O  0.72239217  0.19373879  0.57565518    -0.74700
Al723      Al  0.61179187  0.20791515  0.54815986     1.90100
O724        O  0.71716146  0.25998522  0.52171444    -0.73800
O725        O  0.71703685  0.27305118  0.61288416    -0.73600
O726        O  0.71435814  0.33876329  0.55891521    -0.79300
O727        O  0.65600496  0.32716849  0.62025702    -0.77500
O728        O  0.64382998  0.26054216  0.56733198    -1.13600
O729        O  0.57627543  0.26208845  0.61663272    -0.72800
C730        C  0.54650135  0.22681079  0.60675388     0.97900
C731        C  0.70251571  0.22357098  0.00454791     0.94300
Al732      Al  0.71205955  0.26587232  0.56733627     1.55600
O733        O  0.57514843  0.24993386  0.51813665    -0.77400
C734        C  0.69659993  0.30633279  0.63008052     0.98500
C735        C  0.69086469  0.15744371  0.58219451     0.93300
O736        O  0.64349431  0.16107162  0.57603816    -0.82800
C737        C  0.70664428  0.18500873  0.94854882    -0.06200
C738        C  0.73181510  0.21214999  0.97384796    -0.00300
C739        C  0.78451464  0.22787473  0.96913753    -0.08800
C740        C  0.80704449  0.22140079  0.93791307    -0.06200
C741        C  0.77977687  0.19956484  0.91158829    -0.00300
C742        C  0.73009789  0.17761693  0.91756176    -0.08700
C743        C  0.70236742  0.14536818  0.89187816     0.61600
H744        H  0.66751274  0.17104792  0.95272827     0.12300
H745        H  0.84562825  0.23629370  0.93324562     0.12300
C746        C  0.81757256  0.25125104  0.49648657     0.61900
F747        F  0.66219044  0.11711004  0.90578195    -0.23300
F748        F  0.73655699  0.11194846  0.87812062    -0.20600
F749        F  0.68209589  0.17579842  0.86738851    -0.20300
F750        F  0.81376608  0.22257233  0.52517420    -0.20400
F751        F  0.80207942  0.30013850  0.50242157    -0.20700
F752        F  0.86927808  0.25387186  0.48784445    -0.23400
C753        C  0.72474092  0.32774256  0.72086586    -0.06200
C754        C  0.77875529  0.32169116  0.72119649    -0.00300
C755        C  0.80580076  0.32295287  0.69067463    -0.08800
C756        C  0.77690827  0.32137327  0.66121133    -0.06200
C757        C  0.72264831  0.32056587  0.66130704    -0.00300
C758        C  0.69605885  0.32751366  0.69135125    -0.08700
C759        C  0.63781310  0.33214298  0.69255911     0.61600
H760        H  0.70445249  0.33031502  0.74422575     0.12300
H761        H  0.79660749  0.31860311  0.63761328     0.12300
C762        C  0.86428721  0.32518790  0.68874767     0.61900
F763        F  0.62001829  0.33813997  0.72460028    -0.23300
F764        F  0.61435352  0.28902773  0.67968994    -0.20600
F765        F  0.62332181  0.37395985  0.67431431    -0.20300
F766        F  0.88442064  0.28091338  0.70116581    -0.20400
F767        F  0.88285162  0.36616003  0.70676284    -0.20700
F768        F  0.88155376  0.33124604  0.65647637    -0.23400
C769        C  0.42348095  0.34449945  0.99384916    -0.06200
C770        C  0.40319384  0.30640585  0.97311595    -0.00300
C771        C  0.42873564  0.25970862  0.97097622    -0.08800
C772        C  0.47579784  0.25437239  0.98815658    -0.06200
C773        C  0.49583153  0.29259565  0.50895532    -0.00300
C774        C  0.46823192  0.33818485  0.51254535    -0.08700
C775        C  0.48454815  0.38024896  0.53632500     0.61600
H776        H  0.40243551  0.37921496  0.99621630     0.12300
H777        H  0.49609197  0.21913685  0.98654859     0.12300
C778        C  0.40641897  0.21560706  0.95121303     0.61900
F779        F  0.45521132  0.42305697  0.53249989    -0.23300
F780        F  0.53537349  0.39449389  0.53081914    -0.20600
F781        F  0.47844255  0.36370146  0.56869302    -0.20300
F782        F  0.39851214  0.23029017  0.91868027    -0.20400
F783        F  0.36000775  0.19960811  0.96505735    -0.20700
F784        F  0.43886561  0.17470162  0.95118453    -0.23400
C785        C  0.04260312  0.28348889  0.85755535    -0.06200
C786        C  0.99745983  0.30162423  0.87197009    -0.00300
C787        C  0.99907830  0.32357702  0.90364948    -0.08800
C788        C  0.04685835  0.32702238  0.92012723    -0.06200
C789        C  0.09229328  0.30879851  0.90574806    -0.00300
C790        C  0.09041791  0.28722009  0.87372214    -0.08700
C791        C  0.13863148  0.27037900  0.85599349     0.61600
H792        H  0.03987135  0.26598891  0.83339070     0.12300
H793        H  0.04924983  0.34437824  0.94433174     0.12300
C794        C  0.95045615  0.34216393  0.91991382     0.61900
F795        F  0.12828210  0.25452074  0.82394585    -0.23300
F796        F  0.16022698  0.23053480  0.87300591    -0.20600
F797        F  0.17368830  0.31042002  0.85417036    -0.20300
F798        F  0.91445077  0.30292402  0.92208296    -0.20400
F799        F  0.93023970  0.38090295  0.90113964    -0.20700
F800        F  0.95985546  0.36012230  0.95156917    -0.23400
C801        C  0.47808936  0.25196927  0.64621943    -0.06200
C802        C  0.49892048  0.21409374  0.62596319    -0.00300
C803        C  0.47178671  0.16721959  0.62272297    -0.08800
C804        C  0.42348776  0.16135605  0.63807456    -0.06200
C805        C  0.40210449  0.19930711  0.65784422    -0.00300
C806        C  0.43035892  0.24517999  0.66265232    -0.08700
C807        C  0.41124368  0.28609914  0.68557412     0.61600
H808        H  0.49908574  0.28766874  0.64863978     0.12300
H809        H  0.40164044  0.12640890  0.63452961     0.12300
C810        C  0.49376010  0.12270858  0.60403513     0.61900
F811        F  0.44747752  0.32496305  0.68948122    -0.23300
F812        F  0.40091177  0.26563962  0.71655985    -0.20600
F813        F  0.36683715  0.30663841  0.67273495    -0.20300
F814        F  0.54425706  0.11529440  0.61380779    -0.20400
F815        F  0.49197212  0.13174194  0.57027859    -0.20700
F816        F  0.46618722  0.07819256  0.61025244    -0.23400
C817        C  0.01007960  0.16891493  0.75519308    -0.06200
C818        C  0.99755686  0.22006854  0.75766248    -0.00300
C819        C  0.03164757  0.25713832  0.74290179    -0.08800
C820        C  0.07544586  0.24081663  0.72559813    -0.06200
C821        C  0.08786601  0.18958496  0.72311108    -0.00300
C822        C  0.05463393  0.15288647  0.73879989    -0.08700
C823        C  0.06481582  0.09665558  0.73821266     0.61600
H824        H  0.98451427  0.14098777  0.76657086     0.12300
H825        H  0.10101915  0.26850162  0.71398853     0.12300
C826        C  0.02371026  0.31393711  0.74559906     0.61900
F827        F  0.03082048  0.06888016  0.75789367    -0.23300
F828        F  0.11387541  0.08753085  0.75004811    -0.20600
F829        F  0.05916376  0.07978806  0.70600889    -0.20300
F830        F  0.02555273  0.32830094  0.77851402    -0.20400
F831        F  0.97678511  0.32635836  0.73185946    -0.20700
F832        F  0.06143081  0.34196864  0.72899237    -0.23400
C833        C  0.19069820  0.19235204  0.56485676    -0.06200
C834        C  0.18933699  0.22030163  0.59414566    -0.00300
C835        C  0.18164092  0.27333510  0.59254104    -0.08800
C836        C  0.18408195  0.29777165  0.56153422    -0.06200
C837        C  0.19175562  0.27039884  0.53242391    -0.00300
C838        C  0.19053702  0.21655389  0.53375005    -0.08700
C839        C  0.18909293  0.18444862  0.00270256     0.61600
H840        H  0.19453478  0.15164798  0.56643917     0.12300
H841        H  0.18246741  0.33865481  0.56005314     0.12300
C842        C  0.16980939  0.30387138  0.62329100     0.61900
F843        F  0.17121702  0.13572621  0.00955741    -0.23300
F844        F  0.23798310  0.18157591  0.98930553    -0.20600
F845        F  0.15601009  0.20514252  0.97962099    -0.20300
F846        F  0.21351045  0.30999701  0.64260516    -0.20400
F847        F  0.13155407  0.27919257  0.64148826    -0.20700
F848        F  0.15240255  0.35153168  0.61519001    -0.23400
C849        C  0.30923402  0.23274088  0.84367572    -0.06200
C850        C  0.30167438  0.28541098  0.84254104    -0.00300
C851        C  0.29532531  0.30947957  0.81154268    -0.08800
C852        C  0.29396532  0.27931715  0.78281545    -0.06200
C853        C  0.29737893  0.22603271  0.78417807    -0.00300
C854        C  0.30673726  0.20238204  0.81505176    -0.08700
C855        C  0.31024801  0.14527597  0.81823698     0.61600
H856        H  0.31404811  0.21506056  0.86770801     0.12300
H857        H  0.28784019  0.29709236  0.75895022     0.12300
C858        C  0.28694572  0.36607289  0.80895130     0.61900
F859        F  0.31722047  0.13011663  0.85079521    -0.23300
F860        F  0.35162552  0.12849746  0.80006191    -0.20600
F861        F  0.26516603  0.12249734  0.80667361    -0.20300
F862        F  0.32949583  0.39212428  0.82143166    -0.20400
F863        F  0.24371557  0.37886228  0.82681354    -0.20700
F864        F  0.27973025  0.38151202  0.77646154    -0.23400
C865        C  0.33686483  0.92065357  0.62432788    -0.06200
C866        C  0.29983115  0.90130833  0.60205606    -0.00300
C867        C  0.25630867  0.93075724  0.59442992    -0.08800
C868        C  0.25166563  0.97857588  0.60950684    -0.06200
C869        C  0.28833165  0.99758636  0.63240007    -0.00300
C870        C  0.33205139  0.96780191  0.63989323    -0.08700
C871        C  0.37378280  0.98446568  0.66434500     0.61600
H872        H  0.36980657  0.89761849  0.62997526     0.12300
H873        H  0.21807244  0.00084028  0.60423043     0.12300
C874        C  0.21519826  0.91229795  0.57034837     0.61900
F875        F  0.41610427  0.95347167  0.66339089    -0.23300
F876        F  0.35445639  0.98256695  0.69627413    -0.20600
F877        F  0.39100101  0.03310114  0.65690828    -0.20300
F878        F  0.19077538  0.86943036  0.58311654    -0.20400
F879        F  0.23764938  0.90126360  0.54023958    -0.20700
F880        F  0.17800250  0.94820195  0.56477620    -0.23400
C881        C  0.29328247  0.54965253  0.55236445    -0.06200
C882        C  0.29246855  0.59480101  0.53391232    -0.00300
C883        C  0.28843418  0.59287852  0.99907299    -0.08800
C884        C  0.28689855  0.54548004  0.98355873    -0.06200
C885        C  0.28666044  0.50002383  0.00179765    -0.00300
C886        C  0.28919283  0.50188468  0.53693991    -0.08700
C887        C  0.28912754  0.45405870  0.55796183     0.61600
H888        H  0.29791874  0.55223205  0.57902587     0.12300
H889        H  0.28365619  0.54361252  0.95678387     0.12300
C890        C  0.28438570  0.64087512  0.97851729     0.61900
F891        F  0.30073848  0.46437415  0.59078707    -0.23300
F892        F  0.32553406  0.42116771  0.54617409    -0.20600
F893        F  0.24087579  0.43072607  0.55694870    -0.20300
F894        F  0.32608175  0.67298604  0.98451140    -0.20400
F895        F  0.23969025  0.66500165  0.98699153    -0.20700
F896        F  0.28268710  0.63094786  0.94486967    -0.23400
C897        C  0.17752431  0.90436326  0.74902294    -0.06200
C898        C  0.21525702  0.89230137  0.77226157    -0.00300
C899        C  0.25674703  0.92664256  0.77817292    -0.08800
C900        C  0.25510620  0.97495706  0.76363067    -0.06200
C901        C  0.21571235  0.98854390  0.74138974    -0.00300
C902        C  0.17806629  0.95089483  0.73219548    -0.08700
C903        C  0.13846691  0.95840136  0.70497704     0.61600
H904        H  0.14690112  0.87660934  0.74444798     0.12300
H905        H  0.28629882  0.00178987  0.76899103     0.12300
C906        C  0.30407915  0.91430157  0.79841621     0.61900
F907        F  0.10432573  0.91761650  0.70225304    -0.23300
F908        F  0.16300000  0.96438468  0.67474398    -0.20600
F909        F  0.10989465  0.00022695  0.71179402    -0.20300
F910        F  0.30290713  0.86533595  0.81043400    -0.20400
F911        F  0.30860763  0.94746381  0.82472547    -0.20700
F912        F  0.34737101  0.92002584  0.77860751    -0.23400
C913        C  0.29076410  0.82045859  0.94892939    -0.06200
C914        C  0.26181788  0.80177520  0.97569603    -0.00300
C915        C  0.20788834  0.79198811  0.97130150    -0.08800
C916        C  0.18705092  0.79410142  0.93911603    -0.06200
C917        C  0.21731686  0.80810677  0.91171180    -0.00300
C918        C  0.26917270  0.82522030  0.91715569    -0.08700
C919        C  0.30158649  0.84987724  0.89008249     0.61600
H920        H  0.33130194  0.82973484  0.95275519     0.12300
H921        H  0.14706822  0.78282806  0.93502297     0.12300
C922        C  0.17157906  0.78111535  0.50016354     0.61900
F923        F  0.34454689  0.87519565  0.90282039    -0.23300
F924        F  0.27229839  0.88496270  0.87345225    -0.20600
F925        F  0.31866660  0.81365096  0.86834917    -0.20300
F926        F  0.18102556  0.81563987  0.52511295    -0.20400
F927        F  0.17792771  0.73273364  0.51233066    -0.20700
F928        F  0.12040580  0.78532931  0.49085034    -0.23400
C929        C  0.28062330  0.70554276  0.72196295    -0.06200
C930        C  0.22818586  0.68982432  0.72279126    -0.00300
C931        C  0.20568289  0.66813524  0.69392693    -0.08800
C932        C  0.23502218  0.66808990  0.66456169    -0.06200
C933        C  0.28560791  0.68816555  0.66346965    -0.00300
C934        C  0.30956424  0.70557283  0.69269001    -0.08700
C935        C  0.36427749  0.72727631  0.69240178     0.61600
H936        H  0.29836764  0.72106713  0.74410891     0.12300
H937        H  0.21752947  0.65525058  0.64157945     0.12300
C938        C  0.15106091  0.64627222  0.69350440     0.61900
F939        F  0.38118151  0.74027257  0.72387160    -0.23300
F940        F  0.36661577  0.77028562  0.67271730    -0.20600
F941        F  0.39733246  0.69176275  0.67993040    -0.20300
F942        F  0.11633678  0.68490199  0.69571860    -0.20400
F943        F  0.14384034  0.61315029  0.71983401    -0.20700
F944        F  0.14065679  0.61988376  0.66459362    -0.23400
C945        C  0.17641916  0.59489542  0.88607304    -0.06200
C946        C  0.19987792  0.60323845  0.85540341    -0.00300
C947        C  0.22949603  0.56514292  0.84092251    -0.08800
C948        C  0.23450573  0.51898343  0.85795092    -0.06200
C949        C  0.20963592  0.50932326  0.88849749    -0.00300
C950        C  0.17874497  0.54794602  0.90251155    -0.08700
C951        C  0.14698825  0.54044077  0.93396718     0.61600
H952        H  0.15529751  0.62565067  0.89676845     0.12300
H953        H  0.25805147  0.48997628  0.84724335     0.12300
C954        C  0.25633512  0.57387673  0.80789868     0.61900
F955        F  0.11644264  0.58154194  0.94048093    -0.23300
F956        F  0.17899522  0.53412329  0.96098524    -0.20600
F957        F  0.11442275  0.49854463  0.93061008    -0.20300
F958        F  0.28882704  0.61602637  0.80994158    -0.20400
F959        F  0.22004911  0.58170297  0.78336422    -0.20700
F960        F  0.28556361  0.53296437  0.79883958    -0.23400
C961        C  0.54118605  0.69153691  0.95425487    -0.06200
C962        C  0.58727610  0.71274296  0.96713219    -0.00300
C963        C  0.58595895  0.74106821  0.49676301    -0.08800
C964        C  0.53851611  0.74533501  0.51323436    -0.06200
C965        C  0.49315490  0.72221986  0.50103082    -0.00300
C966        C  0.49381818  0.69608063  0.97074987    -0.08700
C967        C  0.44514464  0.67185887  0.95659164     0.61600
H968        H  0.54295517  0.66992863  0.93158378     0.12300
H969        H  0.53656590  0.76583706  0.53634938     0.12300
C970        C  0.63450510  0.76404080  0.51209403     0.61900
F971        F  0.45439884  0.64700284  0.92713068    -0.23300
F972        F  0.40942990  0.70885650  0.95045601    -0.20600
F973        F  0.42492053  0.63697441  0.97900591    -0.20300
F974        F  0.65722176  0.79836407  0.49028822    -0.20400
F975        F  0.66856536  0.72605211  0.51936132    -0.20700
F976        F  0.62429051  0.78941436  0.54121757    -0.23400
C977        C  0.93456839  0.65912116  0.89848844    -0.06200
C978        C  0.90012958  0.69926272  0.90261988    -0.00300
C979        C  0.91368696  0.74758393  0.88927284    -0.08800
C980        C  0.96097508  0.75338163  0.87254404    -0.06200
C981        C  0.99466131  0.71291435  0.86771966    -0.00300
C982        C  0.98078072  0.66453702  0.88056355    -0.08700
C983        C  0.01373612  0.61849968  0.87533941     0.61600
H984        H  0.92449859  0.62238845  0.90880364     0.12300
H985        H  0.97141532  0.79005115  0.86214746     0.12300
C986        C  0.87873286  0.79293806  0.89175358     0.61900
F987        F  0.99579682  0.57670425  0.89308751    -0.23300
F988        F  0.06352268  0.62908168  0.88562485    -0.20600
F989        F  0.01363139  0.60578928  0.84213506    -0.20300
F990        F  0.89972125  0.83557192  0.87638057    -0.20400
F991        F  0.87089996  0.80490474  0.92467848    -0.20700
F992        F  0.83198750  0.78198127  0.87651608    -0.23400
C993        C  0.72895496  0.46987724  0.87474717    -0.06200
C994        C  0.77104709  0.50270504  0.88187076    -0.00300
C995        C  0.82142513  0.48807755  0.87371265    -0.08800
C996        C  0.82842779  0.43984374  0.86029112    -0.06200
C997        C  0.78680382  0.40598616  0.85392926    -0.00300
C998        C  0.73590261  0.42153268  0.86068930    -0.08700
C999        C  0.68933226  0.38811218  0.85237096     0.61600
H1000       H  0.69055343  0.48209376  0.88091267     0.12300
H1001       H  0.86718006  0.42814141  0.85463610     0.12300
C1002       C  0.86752131  0.52389727  0.87819480     0.61900
F1003       F  0.64344712  0.41234670  0.85824746    -0.23300
F1004       F  0.68972914  0.34465690  0.87159967    -0.20600
F1005       F  0.69050731  0.37508304  0.81920644    -0.20300
F1006       F  0.87849164  0.52922548  0.91153066    -0.20400
F1007       F  0.85677206  0.57075238  0.86467260    -0.20700
F1008       F  0.91109983  0.50626787  0.86261927    -0.23400
C1009       C  0.73353847  0.49729934  0.52292079    -0.06200
C1010       C  0.69702521  0.51086524  0.99857379    -0.00300
C1011       C  0.65461145  0.47722193  0.99225958    -0.08800
C1012       C  0.65222849  0.43067034  0.50910182    -0.06200
C1013       C  0.68895197  0.41698580  0.53295862    -0.00300
C1014       C  0.73029083  0.45088577  0.54028285    -0.08700
C1015       C  0.77049176  0.43848042  0.56632799     0.61600
H1016       H  0.76586368  0.52280840  0.52777808     0.12300
H1017       H  0.62151543  0.40376237  0.50335729     0.12300
C1018       C  0.61138038  0.48951339  0.96814059     0.61900
F1019       F  0.80523250  0.47834245  0.57123107    -0.23300
F1020       F  0.79806390  0.39701331  0.55639752    -0.20600
F1021       F  0.74657626  0.42778932  0.59627059    -0.20300
F1022       F  0.62938090  0.48811935  0.93593159    -0.20400
F1023       F  0.59257583  0.53696852  0.97492700    -0.20700
F1024       F  0.57040248  0.45512777  0.97050087    -0.23400
C1025       C  0.51401796  0.83621200  0.62782650    -0.06200
C1026       C  0.50394654  0.78535870  0.62059928    -0.00300
C1027       C  0.54008588  0.74844524  0.63043748    -0.08800
C1028       C  0.58608928  0.76456341  0.64625386    -0.06200
C1029       C  0.59692566  0.81579864  0.65324291    -0.00300
C1030       C  0.55898049  0.85241912  0.64468239    -0.08700
C1031       C  0.56414037  0.90842625  0.65331625     0.61600
H1032       H  0.48546725  0.86333212  0.62033102     0.12300
H1033       H  0.61430156  0.73684233  0.65319812     0.12300
C1034       C  0.53161083  0.69242214  0.62321397     0.61900
F1035       F  0.52176952  0.93551295  0.64317479    -0.23300
F1036       F  0.60681991  0.92995356  0.63786315    -0.20600
F1037       F  0.56835280  0.91390520  0.68729838    -0.20300
F1038       F  0.52558827  0.68540380  0.58952164    -0.20400
F1039       F  0.48827146  0.67415403  0.63965168    -0.20700
F1040       F  0.57284357  0.66382172  0.63349465    -0.23400
C1041       C  0.95787999  0.80630862  0.70042939    -0.06200
C1042       C  0.91237387  0.81397620  0.71836787    -0.00300
C1043       C  0.91481749  0.81706998  0.75333006    -0.08800
C1044       C  0.96269593  0.81128218  0.76931571    -0.06200
C1045       C  0.00803583  0.80199459  0.75157728    -0.00300
C1046       C  0.00584048  0.79986542  0.71642142    -0.08700
C1047       C  0.05248583  0.79249092  0.69448630     0.61600
H1048       H  0.95607205  0.80603392  0.67357634     0.12300
H1049       H  0.96468872  0.81169794  0.79612130     0.12300
C1050       C  0.86649004  0.82461521  0.77373943     0.61900
F1051       F  0.05837106  0.83381274  0.67355598    -0.23300
F1052       F  0.04450107  0.74973078  0.67536704    -0.20600
F1053       F  0.09784093  0.78744252  0.71213551    -0.20300
F1054       F  0.83401680  0.78277421  0.77021931    -0.20400
F1055       F  0.84124880  0.86736774  0.76321406    -0.20700
F1056       F  0.87765589  0.83038087  0.80705544    -0.23400
C1057       C  0.80931764  0.78596394  0.52870235    -0.06200
C1058       C  0.80432018  0.73270269  0.52993928    -0.00300
C1059       C  0.80751758  0.70775122  0.56091358    -0.08800
C1060       C  0.81004770  0.73728562  0.58980875    -0.06200
C1061       C  0.81060276  0.79056252  0.58872877    -0.00300
C1062       C  0.81344848  0.81545053  0.55768676    -0.08700
C1063       C  0.81882942  0.87259901  0.55523890     0.61600
H1064       H  0.80823163  0.80446900  0.50468638     0.12300
H1065       H  0.80930118  0.71883488  0.61387008     0.12300
C1066       C  0.80557753  0.65046659  0.56366694     0.61900
F1067       F  0.81930194  0.88932853  0.52266980    -0.23300
F1068       F  0.86456344  0.88839778  0.57001307    -0.20600
F1069       F  0.77808646  0.89473302  0.57113262    -0.20300
F1070       F  0.84750513  0.63079982  0.54740898    -0.20400
F1071       F  0.76043865  0.63162907  0.54966670    -0.20700
F1072       F  0.80716948  0.63418156  0.59630844    -0.23400
C1073       C  0.69056322  0.80936128  0.80722298    -0.06200
C1074       C  0.69938867  0.78192480  0.77825557    -0.00300
C1075       C  0.69740511  0.72787718  0.77989768    -0.08800
C1076       C  0.69388881  0.70376350  0.81112279    -0.06200
C1077       C  0.69102724  0.73165502  0.84036919    -0.00300
C1078       C  0.68567554  0.78506964  0.83829109    -0.08700
C1079       C  0.67551443  0.81672350  0.86878006     0.61600
H1080       H  0.69026014  0.85034489  0.80569682     0.12300
H1081       H  0.69657166  0.66295107  0.81301478     0.12300
C1082       C  0.69904013  0.69523578  0.74903974     0.61900
F1083       F  0.65701838  0.86380739  0.86024108    -0.23300
F1084       F  0.72063792  0.82391129  0.88658447    -0.20600
F1085       F  0.63883306  0.79274555  0.88860111    -0.20300
F1086       F  0.74864522  0.69486250  0.73654246    -0.20400
F1087       F  0.66574602  0.71374117  0.72528971    -0.20700
F1088       F  0.68393761  0.64562762  0.75579333    -0.23400
C1089       C  0.74756861  0.03825736  0.75189677    -0.06200
C1090       C  0.79296216  0.01472816  0.74152350    -0.00300
C1091       C  0.84118621  0.03943906  0.74661345    -0.08800
C1092       C  0.84218657  0.08706901  0.76203640    -0.06200
C1093       C  0.79691967  0.11037816  0.77283291    -0.00300
C1094       C  0.74866606  0.08571519  0.76767616    -0.08700
C1095       C  0.69901884  0.10802252  0.78010659     0.61600
H1096       H  0.71089999  0.01907038  0.74737662     0.12300
H1097       H  0.87885884  0.10640417  0.76634074     0.12300
C1098       C  0.89147303  0.01482518  0.73737721     0.61900
F1099       F  0.65667295  0.07656350  0.77391407    -0.23300
F1100       F  0.69086963  0.15399016  0.76468920    -0.20600
F1101       F  0.70237378  0.11509840  0.81389929    -0.20300
F1102       F  0.89573319  0.01156600  0.70332949    -0.20400
F1103       F  0.89317382  0.96683620  0.75114835    -0.20700
F1104       F  0.93366657  0.04235610  0.74894749    -0.23400
C1105       C  0.69371531  0.06398623  0.58090418    -0.06200
C1106       C  0.70805523  0.10922893  0.59705524    -0.00300
C1107       C  0.73023127  0.10690311  0.62905014    -0.08800
C1108       C  0.73674020  0.05914831  0.64395874    -0.06200
C1109       C  0.72166384  0.01394677  0.62803662    -0.00300
C1110       C  0.69995748  0.01616114  0.59579268    -0.08700
C1111       C  0.68041155  0.97038562  0.57646747     0.61600
H1112       H  0.67574877  0.06615787  0.55665377     0.12300
H1113       H  0.75362671  0.05667258  0.66845002     0.12300
C1114       C  0.74486262  0.15465044  0.64791191     0.61900
F1115       F  0.62872101  0.97618800  0.56910352    -0.23300
F1116       F  0.68513988  0.92521123  0.59344143    -0.20600
F1117       F  0.70755538  0.96730000  0.54708562    -0.20300
F1118       F  0.70194279  0.18429559  0.65145859    -0.20400
F1119       F  0.78274962  0.18152696  0.63077463    -0.20700
F1120       F  0.76366397  0.14400452  0.67925819    -0.23400
loop_ 
_geom_bond_atom_site_label_1 
_geom_bond_atom_site_label_2 
_geom_bond_distance 
_geom_bond_site_symmetry_2 
_ccdc_geom_bond_type 
O1           C16   1.259       .  A
O1           Al9   1.875       .  S
C2           O12   1.252       .  A
C2            O3   1.275       .  A
C2          C469   1.503       .  S
O3           Al5   1.961       .  S
O4            C6   1.249       .  A
O4           Al5   1.858       .  S
Al5          O13   1.865       .  S
Al5          O15   1.964       .  S
Al5          O14   1.776       .  S
C6           O19   1.264       .  A
C6          C501   1.485       .  S
O7           C17   1.263       .  A
O7           Al9   1.900       .  S
O8           C21   1.261       .  A
O8          Al18   1.886       .  S
Al9          O22   1.942       .  S
Al9          O19   1.951       .  S
Al9          O14   1.792       .  S
O10          C17   1.270       .  A
O10         Al18   1.946       .  S
O11          C20   1.266       .  A
O11         Al18   1.957       .  S
O12         Al18   1.858       .  S
O13          C20   1.248       .  A
O14         Al18   1.783       .  S
O15          C16   1.275       .  A
C16         C482   1.482       .  S
C17         C549   1.478   1_565  S
C20         C514   1.494       .  S
C21          O22   1.267       .  A
C21         C530   1.480   1_565  S
O23          C38   1.256       .  A
O23         Al31   1.861       .  S
C24          O34   1.259       .  A
C24          O25   1.269       .  A
C24         C418   1.493       .  S
O25         Al27   1.937       .  S
O26          C28   1.249       .  A
O26         Al27   1.861       .  S
Al27         O35   1.863       .  S
Al27         O37   1.939       .  S
Al27         O36   1.780       .  S
C28          O41   1.268       .  A
C28         C517   1.487       .  S
O29          C39   1.262       .  A
O29         Al31   1.897       .  S
O30          C43   1.262       .  A
O30         Al40   1.885       .  S
Al31         O44   1.940       .  S
Al31         O41   1.958       .  S
Al31         O36   1.787       .  S
O32          C39   1.266       .  A
O32         Al40   1.934       .  S
O33          C42   1.263       .  A
O33        Al600   1.947       .  S
O34         Al40   1.861       .  S
O35         C602   1.250       .  A
O36         Al40   1.783       .  S
O37          C38   1.268       .  A
C38         C402   1.478       .  S
C39         C434   1.481       .  S
Al40        O593   1.947       .  S
C42         O595   1.250       .  A
C42         C498   1.486   1_556  S
C43          O44   1.269       .  A
C43         C450   1.494       .  S
O45          C60   1.266       .  A
O45         Al53   1.924       .  S
C46          O56   1.265       .  A
C46          O47   1.268       .  A
C46         C386   1.467       .  S
O47         Al49   1.921       .  S
O48          C50   1.263       .  A
O48         Al49   1.913       .  S
Al49         O57   1.919       .  S
Al49         O59   1.900       .  S
Al49         O58   1.786       .  S
C50          O63   1.258       .  A
C50         C421   1.490   1_455  S
O51          C61   1.262       .  A
O51         Al53   1.925       .  S
O52          C65   1.266       .  A
O52         Al62   1.904       .  S
Al53         O66   1.910       .  S
Al53         O63   1.876       .  S
Al53         O58   1.782       .  S
O54          C61   1.251       .  A
O54         Al62   1.893       .  S
O55          C64   1.253       .  A
O55         Al62   1.883       .  S
O56         Al62   1.899       .  S
O57          C64   1.260       .  A
O58         Al62   1.791       .  S
O59          C60   1.259       .  A
C60         C485   1.483       .  S
C61         C357   1.490       .  S
C64         C370   1.489       .  S
C65          O66   1.265       .  A
C65         C338   1.464       .  S
O67          C82   1.266       .  A
O67         Al75   1.934       .  S
C68          O78   1.271       .  A
C68          O69   1.258       .  A
C68         C306   1.492       .  S
O69         Al71   1.868       .  S
O70          C72   1.272       .  A
O70         Al71   1.956       .  S
Al71         O81   1.892       .  S
Al71        O639   1.951       .  S
Al71         O80   1.778       .  S
C72          O85   1.258       .  A
C72         C466   1.485       .  S
O73          C83   1.265       .  A
O73         Al75   1.943       .  S
O74          C87   1.272       .  A
O74         Al84   1.959       .  S
Al75         O88   1.858       .  S
Al75         O85   1.882       .  S
Al75         O80   1.784       .  S
O76          C83   1.251       .  A
O76         Al84   1.857       .  S
O77         C646   1.249       .  A
O77         Al84   1.856       .  S
O78         Al84   1.962       .  S
O79          C86   1.269       .  A
O79        Al631   1.951       .  S
O80         Al84   1.779       .  S
O81          C82   1.258       .  A
C82         C405   1.470       .  S
C83         C373   1.466       .  S
C86         O637   1.249       .  A
C86         C354   1.485       .  S
C87          O88   1.255       .  A
C87         C322   1.471       .  S
O89         C104   1.258       .  A
O89         Al97   1.875       .  S
C90         O100   1.256       .  A
C90          O91   1.272       .  A
C90         C245   1.489       .  S
O91         Al93   1.957       .  S
O92          C94   1.247       .  A
O92         Al93   1.859       .  S
Al93        O101   1.857       .  S
Al93        O103   1.951       .  S
Al93        O102   1.778       .  S
C94         O107   1.261       .  A
C94         C274   1.476       .  S
O95         C105   1.268       .  A
O95         Al97   1.909       .  S
O96         C109   1.265       .  A
O96        Al106   1.895       .  S
Al97        O110   1.922       .  S
Al97        O107   1.937       .  S
Al97        O102   1.790       .  S
O98         C105   1.266       .  A
O98        Al106   1.929       .  S
O99         C108   1.264       .  A
O99        Al106   1.948       .  S
O100       Al106   1.853       .  S
O101        C108   1.248       .  A
O102       Al106   1.781       .  S
O103        C104   1.275       .  A
C104        C261   1.504       .  S
C105        C309   1.498   1_545  S
C108        C293   1.490       .  S
C109        O110   1.262       .  A
C109        C341   1.491   1_545  S
O111        C126   1.259       .  A
O111       Al119   1.858       .  S
C112        O122   1.257       .  A
C112        O113   1.272       .  A
C112        C229   1.472       .  S
O113       Al115   1.944       .  S
O114        C116   1.247       .  A
O114       Al115   1.850       .  S
Al115       O123   1.860       .  S
Al115       O125   1.936       .  S
Al115       O124   1.779       .  S
C116        O129   1.263       .  A
C116        C290   1.484       .  S
O117        C127   1.264       .  A
O117       Al119   1.894       .  S
O118        C131   1.260       .  A
O118       Al128   1.893       .  S
Al119       O132   1.944       .  S
Al119       O129   1.950       .  S
Al119       O124   1.786       .  S
O120        C127   1.263       .  A
O120       Al128   1.926       .  S
O121        C130   1.260   1_556  A
O121       Al688   1.932       .  S
O122       Al128   1.857       .  S
O123        C690   1.246       .  A
O124       Al128   1.788       .  S
O125        C126   1.268       .  A
C126        C210   1.485       .  S
C127        C389   1.494       .  S
Al128       O681   1.931       .  S
C130        O683   1.246   1_554  A
C130        C277   1.480       .  S
C131        O132   1.271       .  A
C131        C325   1.483       .  S
O133        C148   1.262       .  A
O133       Al141   1.914       .  S
C134        O144   1.267       .  A
C134        O135   1.259       .  A
C134        C533   1.483       .  S
O135       Al137   1.889       .  S
O136        C138   1.268       .  A
O136       Al137   1.918       .  S
Al137       O145   1.910       .  S
Al137       O147   1.869       .  S
Al137       O146   1.784       .  S
C138        O151   1.254       .  A
C138        C258   1.501       .  S
O139        C149   1.260       .  A
O139       Al141   1.909       .  S
O140        C153   1.270       .  A
O140       Al150   1.936       .  S
Al141       O154   1.887       .  S
Al141       O151   1.888       .  S
Al141       O146   1.786       .  S
O142        C149   1.256       .  A
O142       Al150   1.882       .  S
O143        C152   1.255       .  A
O143       Al150   1.901       .  S
O144       Al150   1.931       .  S
O145        C152   1.263       .  A
O146       Al150   1.789       .  S
O147        C148   1.253       .  A
C148        C226   1.463       .  S
C149        C194   1.489       .  S
C152        C181   1.483       .  S
C153        O154   1.260       .  A
C153        C437   1.490       .  S
O155        C170   1.269       .  A
O155       Al163   1.941       .  S
C156        O166   1.271       .  A
C156        O157   1.256       .  A
C156        C453   1.483       .  S
O157       Al159   1.856       .  S
O158        C160   1.262       .  A
O158       Al159   1.916       .  S
Al159       O167   1.931       .  S
Al159       O169   1.887       .  S
Al159       O168   1.778       .  S
C160        O173   1.265       .  A
C160        C213   1.488       .  S
O161        C171   1.268       .  A
O161       Al723   1.954       .  S
O162        C175   1.272       .  A
O162       Al172   1.957       .  S
Al163       O176   1.871       .  S
Al163       O173   1.906       .  S
Al163       O721   1.955       .  S
Al163       O168   1.782       .  S
O164        C731   1.246       .  A
O164       Al172   1.853       .  S
O165        C174   1.250       .  A
O165       Al172   1.853       .  S
O166       Al172   1.953       .  S
O167        C174   1.261       .  A
O168       Al172   1.771       .  S
O169        C170   1.262       .  A
C170        C242   1.489       .  S
C171        O724   1.246       .  A
C171        C178   1.489       .  S
C174        C197   1.475       .  S
C175        O176   1.258       .  A
C175        C546   1.483       .  S
C177        C178   1.402       .  A
C177        C182   1.408       .  A
C177        H184   1.084       .  S
C178        C179   1.431       .  A
C179        C180   1.402       .  A
C179        C746   1.524       .  S
C180        C181   1.395       .  A
C180        H185   1.082       .  S
C181        C182   1.420       .  A
C182        C183   1.515       .  S
C183        F187   1.385       .  S
C183        F188   1.384       .  S
C183        F189   1.381       .  S
C186        C739   1.524       .  S
C186        F190   1.383   1_556  S
C186        F191   1.383   1_556  S
C186        F192   1.385       .  S
C193        C194   1.413       .  A
C193        C198   1.403       .  A
C193        H200   1.083       .  S
C194        C195   1.418       .  A
C195        C196   1.404       .  A
C195        C202   1.518       .  S
C196        C197   1.406       .  A
C196        H201   1.085       .  S
C197        C198   1.410       .  A
C198        C199   1.518       .  S
C199        F203   1.384       .  S
C199        F204   1.382       .  S
C199        F205   1.383       .  S
C202        F206   1.383       .  S
C202        F207   1.384       .  S
C202        F208   1.385       .  S
C209        C210   1.404       .  A
C209        C774   1.400       .  A
C209        H216   1.082       .  S
C210        C211   1.416       .  A
C211        C212   1.412       .  A
C211        C218   1.518       .  S
C212        C773   1.410       .  A
C212        H217   1.082       .  S
C213        C214   1.423       .  A
C213        C772   1.410   1_554  A
C214        C769   1.400   1_554  A
C214        C215   1.524       .  S
C215        F219   1.385       .  S
C215        F220   1.380       .  S
C215        F221   1.383       .  S
C218        F222   1.383       .  S
C218        F223   1.384       .  S
C218        F224   1.384       .  S
C225        C226   1.402   1_455  A
C225        C230   1.401       .  A
C225        H232   1.083       .  S
C226        C227   1.407       .  A
C227        C228   1.406   1_655  A
C227        C234   1.514       .  S
C228        C229   1.408       .  A
C228        H233   1.082       .  S
C229        C230   1.415       .  A
C230        C231   1.517       .  S
C231        F235   1.385       .  S
C231        F236   1.382       .  S
C231        F237   1.381       .  S
C234        F238   1.381       .  S
C234        F239   1.382       .  S
C234        F240   1.384       .  S
C241        C242   1.412       .  A
C241        C246   1.412       .  A
C241        H248   1.083       .  S
C242        C243   1.417       .  A
C243        C244   1.403       .  A
C243        C250   1.522       .  S
C244        C245   1.408       .  A
C244        H249   1.082       .  S
C245        C246   1.416       .  A
C246        C247   1.518       .  S
C247        F251   1.385       .  S
C247        F252   1.384       .  S
C247        F253   1.382       .  S
C250        F254   1.384       .  S
C250        F255   1.383       .  S
C250        F256   1.384       .  S
C257        C258   1.401   1_455  A
C257        C262   1.406       .  A
C257        H264   1.081   1_455  S
C258        C259   1.432   1_655  A
C259        C260   1.411       .  A
C259        C266   1.523       .  S
C260        C261   1.402       .  A
C260        H265   1.081       .  S
C261        C262   1.428       .  A
C262        C263   1.515       .  S
C263        F267   1.383       .  S
C263        F268   1.383       .  S
C263        F269   1.382       .  S
C266        F270   1.383       .  S
C266        F271   1.381   1_455  S
C266        F272   1.385       .  S
C273        C274   1.397       .  A
C273        C278   1.406       .  A
C273        H280   1.084       .  S
C274        C275   1.421       .  A
C275        C276   1.406       .  A
C275        C282   1.519       .  S
C276        C277   1.399       .  A
C276        H281   1.083       .  S
C277        C278   1.423       .  A
C278        C839   1.518       .  S
C279        C838   1.518       .  S
C279        F283   1.385       .  S
C279        F284   1.382       .  S
C279        F285   1.384       .  S
C282        F286   1.381       .  S
C282        F287   1.384       .  S
C282        F288   1.384       .  S
C289        C290   1.410       .  A
C289        C294   1.410       .  A
C289        H296   1.083       .  S
C290        C291   1.412       .  A
C291        C292   1.410       .  A
C291        C298   1.518       .  S
C292        C293   1.413       .  A
C292        H297   1.082       .  S
C293        C294   1.414       .  A
C294        C295   1.518       .  S
C295        F299   1.384       .  S
C295        F300   1.383       .  S
C295        F301   1.384       .  S
C298        F302   1.382       .  S
C298        F303   1.382       .  S
C298        F304   1.385       .  S
C305        C306   1.403       .  A
C305        C310   1.406       .  A
C305        H312   1.083       .  S
C306        C307   1.417       .  A
C307        C308   1.412       .  A
C307        C314   1.515       .  S
C308        C309   1.410       .  A
C308        H313   1.082   1_565  S
C309        C310   1.425       .  A
C310        C311   1.522       .  S
C311        F315   1.384       .  S
C311        F316   1.383       .  S
C311        F317   1.382   1_565  S
C314        F318   1.382       .  S
C314        F319   1.383       .  S
C314        F320   1.385       .  S
C321        C322   1.403       .  A
C321        C326   1.412       .  A
C321        H328   1.085       .  S
C322        C883   1.411   1_554  A
C323        C324   1.402       .  A
C323        C882   1.411       .  A
C323        C330   1.517       .  S
C324        C325   1.405       .  A
C324        H329   1.085       .  S
C325        C886   1.420       .  A
C326        C885   1.420       .  A
C326        C327   1.518       .  S
C327        F331   1.385       .  S
C327        F332   1.384       .  S
C327        F333   1.382       .  S
C330        F334   1.380       .  S
C330        F335   1.379       .  S
C330        F336   1.385       .  S
C337        C338   1.395       .  A
C337        C342   1.401       .  A
C337        H344   1.084       .  S
C338        C339   1.412       .  A
C339        C340   1.404       .  A
C339        C346   1.514       .  S
C340        C341   1.410       .  A
C340        H345   1.085   1_565  S
C341        C342   1.427       .  A
C342        C343   1.517       .  S
C343        F347   1.383       .  S
C343        F348   1.383       .  S
C343        F349   1.373   1_565  S
C346        F350   1.379       .  S
C346        F351   1.383       .  S
C346        F352   1.384       .  S
C353        C354   1.398       .  A
C353        C358   1.404       .  A
C353        H360   1.084       .  S
C354        C355   1.427       .  A
C355        C356   1.407       .  A
C355        C922   1.521       .  S
C356        C357   1.400       .  A
C356        H361   1.084       .  S
C357        C358   1.425       .  A
C358        C359   1.515       .  S
C359        F363   1.385       .  S
C359        F364   1.382       .  S
C359        F365   1.382       .  S
C362        C915   1.521   1_554  S
C362        F366   1.380       .  S
C362        F367   1.380       .  S
C362        F368   1.385   1_554  S
C369        C370   1.412       .  A
C369        C374   1.400       .  A
C369        H376   1.083       .  S
C370        C371   1.419       .  A
C371        C372   1.409       .  A
C371        C378   1.517       .  S
C372        C373   1.404       .  A
C372        H377   1.084       .  S
C373        C374   1.406       .  A
C374        C375   1.518       .  S
C375        F379   1.385       .  S
C375        F380   1.383       .  S
C375        F381   1.382       .  S
C378        F382   1.379       .  S
C378        F383   1.383       .  S
C378        F384   1.385       .  S
C385        C386   1.394       .  A
C385        C390   1.406       .  A
C385        H392   1.082       .  S
C386        C387   1.409       .  A
C387        C388   1.405       .  A
C387        C394   1.518       .  S
C388        C389   1.411       .  A
C388        H393   1.082       .  S
C389        C390   1.430       .  A
C390        C391   1.523       .  S
C391        F395   1.385       .  S
C391        F396   1.381       .  S
C391        F397   1.384       .  S
C394        F398   1.383       .  S
C394        F399   1.383       .  S
C394        F400   1.385       .  S
C401        C402   1.408       .  A
C401        C406   1.405       .  A
C401        H408   1.082       .  S
C402        C963   1.416       .  A
C403        C404   1.406   1_556  A
C403        C962   1.416       .  A
C403        C410   1.517   1_556  S
C404        C405   1.402       .  A
C404        H409   1.083       .  S
C405        C966   1.409   1_554  A
C406        C965   1.409       .  A
C406        C407   1.514       .  S
C407        F411   1.385       .  S
C407        F412   1.382       .  S
C407        F413   1.383       .  S
C410        F414   1.383   1_554  S
C410        F415   1.382       .  S
C410        F416   1.385       .  S
C417        C418   1.412       .  A
C417        C422   1.404       .  A
C417        H424   1.081       .  S
C418        C419   1.420       .  A
C419        C420   1.405       .  A
C419        C426   1.522       .  S
C420        C421   1.410       .  A
C420        H425   1.083       .  S
C421        C422   1.416       .  A
C422        C423   1.518   1_655  S
C423        F427   1.385   1_455  S
C423        F428   1.378       .  S
C423        F429   1.383       .  S
C426        F430   1.384       .  S
C426        F431   1.384       .  S
C426        F432   1.383       .  S
C433        C434   1.409       .  A
C433        C438   1.415       .  A
C433        H440   1.083       .  S
C434        C435   1.410       .  A
C435        C436   1.403       .  A
C435        C442   1.518       .  S
C436        C437   1.409       .  A
C436        H441   1.083       .  S
C437        C438   1.418       .  A
C438        C439   1.517       .  S
C439        F443   1.385       .  S
C439        F444   1.383       .  S
C439        F445   1.384       .  S
C442        F446   1.382       .  S
C442        F447   1.384       .  S
C442        F448   1.384       .  S
C449        C454   1.410       .  A
C449       C1010   1.415   1_554  A
C449        H456   1.081       .  S
C450        C451   1.421       .  A
C450       C1009   1.415       .  A
C451       C1012   1.403       .  A
C451        C458   1.523       .  S
C452        C453   1.405       .  A
C452       C1011   1.403   1_554  A
C452        H457   1.081       .  S
C453        C454   1.413       .  A
C454        C455   1.519       .  S
C455        F459   1.385       .  S
C455        F460   1.383       .  S
C455        F461   1.384       .  S
C458        F462   1.383       .  S
C458        F463   1.384       .  S
C458        F464   1.385       .  S
C465        C466   1.395       .  A
C465        C470   1.408       .  A
C465        H472   1.083       .  S
C466        C467   1.422       .  A
C467        C468   1.410       .  A
C467        C474   1.521       .  S
C468        C469   1.406       .  A
C468        H473   1.082       .  S
C469        C470   1.436       .  A
C470        C471   1.524       .  S
C471        F475   1.385       .  S
C471        F476   1.381       .  S
C471        F477   1.383       .  S
C474        F478   1.381       .  S
C474        F479   1.382       .  S
C474        F480   1.385       .  S
C481        C482   1.404       .  A
C481        C486   1.413   1_655  A
C481        H488   1.085       .  S
C482        C483   1.415       .  A
C483        C484   1.409       .  A
C483        C490   1.518       .  S
C484        C485   1.404   1_655  A
C484        H489   1.083       .  S
C485        C486   1.421       .  A
C486        C487   1.516       .  S
C487        F491   1.383       .  S
C487        F492   1.383       .  S
C487        F493   1.382       .  S
C490        F494   1.382       .  S
C490        F495   1.383       .  S
C490        F496   1.383       .  S
C497        C498   1.411       .  A
C497        C502   1.411       .  A
C497        H504   1.084       .  S
C498        C499   1.413       .  A
C499        C500   1.407       .  A
C499        C506   1.516       .  S
C500        C501   1.407       .  A
C500        H505   1.084       .  S
C501        C502   1.413       .  A
C502        C503   1.516       .  S
C503        F507   1.384       .  S
C503        F508   1.383       .  S
C503        F509   1.379       .  S
C506        F510   1.383       .  S
C506        F511   1.382       .  S
C506        F512   1.384       .  S
C513        C514   1.400       .  A
C513        C518   1.410       .  A
C513        H520   1.084       .  S
C514        C515   1.429       .  A
C515        C516   1.411       .  A
C515        C522   1.519       .  S
C516        C517   1.397       .  A
C516        H521   1.084       .  S
C517        C518   1.423       .  A
C518        C519   1.518       .  S
C519        F523   1.385       .  S
C519        F524   1.382       .  S
C519        F525   1.384       .  S
C522        F526   1.382       .  S
C522        F527   1.384       .  S
C522        F528   1.385       .  S
C529        C530   1.408       .  A
C529        C534   1.408       .  A
C529        H536   1.083       .  S
C530        C531   1.412       .  A
C531        C532   1.406       .  A
C531        C538   1.517       .  S
C532        C533   1.408       .  A
C532        H537   1.083       .  S
C533        C534   1.413       .  A
C534        C535   1.515       .  S
C535        F539   1.385       .  S
C535        F540   1.382       .  S
C535        F541   1.380       .  S
C538        F542   1.382       .  S
C538        F543   1.383   1_545  S
C538        F544   1.381       .  S
C545        C546   1.406       .  A
C545        C550   1.409       .  A
C545        H552   1.085       .  S
C546        C547   1.414       .  A
C547        C548   1.408       .  A
C547        C554   1.517       .  S
C548        C549   1.406       .  A
C548        H553   1.083       .  S
C549        C550   1.418       .  A
C550        C551   1.519   1_545  S
C551        F555   1.384       .  S
C551        F556   1.381       .  S
C551        F557   1.383       .  S
C554        F558   1.383       .  S
C554        F559   1.383       .  S
C554        F560   1.385       .  S
O561        C576   1.259       .  A
O561       Al569   1.875       .  S
C562        O572   1.252       .  A
C562        O563   1.275       .  A
C562       C1029   1.503       .  S
O563       Al565   1.961       .  S
O564        C566   1.249       .  A
O564       Al565   1.858       .  S
Al565       O573   1.865       .  S
Al565       O575   1.964       .  S
Al565       O574   1.776       .  S
C566        O579   1.264       .  A
C566       C1061   1.485       .  S
O567        C577   1.263       .  A
O567       Al569   1.900       .  S
O568        C581   1.261       .  A
O568       Al578   1.886       .  S
Al569       O582   1.942       .  S
Al569       O579   1.951       .  S
Al569       O574   1.792       .  S
O570        C577   1.270       .  A
O570       Al578   1.946       .  S
O571        C580   1.266       .  A
O571       Al578   1.957       .  S
O572       Al578   1.858       .  S
O573        C580   1.248       .  A
O574       Al578   1.783       .  S
O575        C576   1.275       .  A
C576       C1042   1.482       .  S
C577       C1109   1.478   1_565  S
C580       C1074   1.494       .  S
C581        O582   1.267       .  A
C581       C1090   1.481   1_565  S
O583        C598   1.256       .  A
O583       Al591   1.861       .  S
C584        O594   1.259       .  A
C584        O585   1.269       .  A
C584        C978   1.493       .  S
O585       Al587   1.937       .  S
O586        C588   1.249       .  A
O586       Al587   1.861       .  S
Al587       O595   1.863       .  S
Al587       O597   1.939       .  S
Al587       O596   1.780       .  S
C588        O601   1.268       .  A
C588       C1077   1.487       .  S
O589        C599   1.261       .  A
O589       Al591   1.897       .  S
O590        C603   1.262       .  A
O590       Al600   1.885       .  S
Al591       O604   1.941       .  S
Al591       O601   1.958       .  S
Al591       O596   1.787       .  S
O592        C599   1.266       .  A
O592       Al600   1.935       .  S
O593        C602   1.263       .  A
O594       Al600   1.861       .  S
O596       Al600   1.783       .  S
O597        C598   1.268       .  A
C598        C962   1.478       .  S
C599        C994   1.481       .  S
C602       C1058   1.486       .  S
C603        O604   1.269       .  A
C603       C1010   1.494       .  S
O605        C620   1.265       .  A
O605       Al613   1.923       .  S
C606        O616   1.266       .  A
C606        O607   1.268       .  A
C606        C946   1.467       .  S
O607       Al609   1.922       .  S
O608        C610   1.263       .  A
O608       Al609   1.913       .  S
Al609       O617   1.920       .  S
Al609       O619   1.901       .  S
Al609       O618   1.786       .  S
C610        O623   1.258       .  A
C610        C981   1.490   1_455  S
O611        C621   1.262       .  A
O611       Al613   1.925       .  S
O612        C625   1.265       .  A
O612       Al622   1.904       .  S
Al613       O626   1.910       .  S
Al613       O623   1.876       .  S
Al613       O618   1.782       .  S
O614        C621   1.251       .  A
O614       Al622   1.893       .  S
O615        C624   1.253       .  A
O615       Al622   1.883       .  S
O616       Al622   1.899       .  S
O617        C624   1.260       .  A
O618       Al622   1.791       .  S
O619        C620   1.259       .  A
C620       C1045   1.483       .  S
C621        C917   1.490       .  S
C624        C930   1.489       .  S
C625        O626   1.265       .  A
C625        C898   1.464       .  S
O627        C642   1.266       .  A
O627       Al635   1.934       .  S
C628        O638   1.271       .  A
C628        O629   1.258       .  A
C628        C866   1.492       .  S
O629       Al631   1.868       .  S
O630        C632   1.272       .  A
O630       Al631   1.956       .  S
Al631       O641   1.892       .  S
Al631       O640   1.778       .  S
C632        O645   1.258       .  A
C632       C1026   1.484       .  S
O633        C643   1.265       .  A
O633       Al635   1.943       .  S
O634        C647   1.272       .  A
O634       Al644   1.958       .  S
Al635       O648   1.858       .  S
Al635       O645   1.882       .  S
Al635       O640   1.784       .  S
O636        C643   1.251       .  A
O636       Al644   1.857       .  S
O637       Al644   1.856       .  S
O638       Al644   1.962       .  S
O639        C646   1.269       .  A
O640       Al644   1.779       .  S
O641        C642   1.258       .  A
C642        C965   1.470       .  S
C643        C933   1.466       .  S
C646        C914   1.485   1_554  S
C647        O648   1.255       .  A
C647        C882   1.470       .  S
O649        C664   1.258       .  A
O649       Al657   1.875       .  S
C650        O660   1.256       .  A
C650        O651   1.272       .  A
C650        C805   1.489       .  S
O651       Al653   1.957       .  S
O652        C654   1.247       .  A
O652       Al653   1.859       .  S
Al653       O661   1.857       .  S
Al653       O663   1.951       .  S
Al653       O662   1.778       .  S
C654        O667   1.261       .  A
C654        C834   1.476       .  S
O655        C665   1.268       .  A
O655       Al657   1.909       .  S
O656        C669   1.265       .  A
O656       Al666   1.895       .  S
Al657       O670   1.922       .  S
Al657       O667   1.937       .  S
Al657       O662   1.790       .  S
O658        C665   1.266       .  A
O658       Al666   1.929       .  S
O659        C668   1.264       .  A
O659       Al666   1.948       .  S
O660       Al666   1.853       .  S
O661        C668   1.248       .  A
O662       Al666   1.781       .  S
O663        C664   1.275       .  A
C664        C821   1.504       .  S
C665        C869   1.498   1_545  S
C668        C853   1.491       .  S
C669        O670   1.262       .  A
C669        C901   1.491   1_545  S
O671        C686   1.259       .  A
O671       Al679   1.858       .  S
C672        O682   1.257       .  A
C672        O673   1.272       .  A
C672        C789   1.474       .  S
O673       Al675   1.945       .  S
O674        C676   1.247       .  A
O674       Al675   1.849       .  S
Al675       O683   1.860       .  S
Al675       O685   1.935       .  S
Al675       O684   1.779       .  S
C676        O689   1.263       .  A
C676        C850   1.484       .  S
O677        C687   1.264       .  A
O677       Al679   1.895       .  S
O678        C691   1.261       .  A
O678       Al688   1.893       .  S
Al679       O692   1.944       .  S
Al679       O689   1.950       .  S
Al679       O684   1.786       .  S
O680        C687   1.263       .  A
O680       Al688   1.926       .  S
O681        C690   1.260       .  A
O682       Al688   1.857       .  S
O684       Al688   1.788       .  S
O685        C686   1.268       .  A
C686        C770   1.485       .  S
C687        C949   1.494       .  S
C690        C837   1.480       .  S
C691        O692   1.271       .  A
C691        C885   1.483   1_556  S
O693        C708   1.262       .  A
O693       Al701   1.915       .  S
C694        O704   1.267       .  A
C694        O695   1.258       .  A
C694       C1093   1.482       .  S
O695       Al697   1.888       .  S
O696        C698   1.268       .  A
O696       Al697   1.919       .  S
Al697       O705   1.910       .  S
Al697       O707   1.868       .  S
Al697       O706   1.784       .  S
C698        O711   1.254       .  A
C698        C818   1.501       .  S
O699        C709   1.261       .  A
O699       Al701   1.910       .  S
O700        C713   1.270       .  A
O700       Al710   1.936       .  S
Al701       O714   1.887       .  S
Al701       O711   1.888       .  S
Al701       O706   1.785       .  S
O702        C709   1.256       .  A
O702       Al710   1.882       .  S
O703        C712   1.256       .  A
O703       Al710   1.901       .  S
O704       Al710   1.931       .  S
O705        C712   1.263       .  A
O706       Al710   1.789       .  S
O707        C708   1.253       .  A
C708        C786   1.463       .  S
C709        C754   1.489       .  S
C712        C741   1.483       .  S
C713        O714   1.260       .  A
C713        C997   1.491       .  S
O715        C730   1.269       .  A
O715       Al723   1.940       .  S
C716        O726   1.271       .  A
C716        O717   1.256       .  A
C716       C1013   1.483       .  S
O717       Al719   1.857       .  S
O718        C720   1.262       .  A
O718       Al719   1.917       .  S
Al719       O727   1.932       .  S
Al719       O729   1.887       .  S
Al719       O728   1.778       .  S
C720        O733   1.265       .  A
C720        C773   1.488       .  S
O721        C731   1.268       .  A
O722        C735   1.272       .  A
O722       Al732   1.957       .  S
Al723       O736   1.871       .  S
Al723       O733   1.906       .  S
Al723       O728   1.782       .  S
O724       Al732   1.853       .  S
O725        C734   1.250       .  A
O725       Al732   1.853       .  S
O726       Al732   1.953       .  S
O727        C734   1.261       .  A
O728       Al732   1.771       .  S
O729        C730   1.262       .  A
C730        C802   1.489       .  S
C731        C738   1.490   1_554  S
C734        C757   1.475       .  S
C735        O736   1.258       .  A
C735       C1106   1.482       .  S
C737        C738   1.402       .  A
C737        C742   1.408       .  A
C737        H744   1.084       .  S
C738        C739   1.431       .  A
C739        C740   1.402       .  A
C740        C741   1.395       .  A
C740        H745   1.083       .  S
C741        C742   1.420       .  A
C742        C743   1.515       .  S
C743        F747   1.385       .  S
C743        F748   1.384       .  S
C743        F749   1.381       .  S
C746        F750   1.383       .  S
C746        F751   1.383       .  S
C746        F752   1.385       .  S
C753        C754   1.413       .  A
C753        C758   1.403       .  A
C753        H760   1.083       .  S
C754        C755   1.418       .  A
C755        C756   1.404       .  A
C755        C762   1.518       .  S
C756        C757   1.406       .  A
C756        H761   1.085       .  S
C757        C758   1.410       .  A
C758        C759   1.518       .  S
C759        F763   1.384       .  S
C759        F764   1.382       .  S
C759        F765   1.383       .  S
C762        F766   1.383       .  S
C762        F767   1.384       .  S
C762        F768   1.385       .  S
C769        C770   1.404       .  A
C769        H776   1.082       .  S
C770        C771   1.416       .  A
C771        C772   1.412       .  A
C771        C778   1.518       .  S
C772        H777   1.082       .  S
C773        C774   1.423       .  A
C774        C775   1.524       .  S
C775        F779   1.385       .  S
C775        F780   1.380       .  S
C775        F781   1.383       .  S
C778        F782   1.383       .  S
C778        F783   1.384       .  S
C778        F784   1.384       .  S
C785        C786   1.403   1_455  A
C785        C790   1.401       .  A
C785        H792   1.083       .  S
C786        C787   1.406       .  A
C787        C788   1.406   1_655  A
C787        C794   1.514       .  S
C788        C789   1.409       .  A
C788        H793   1.082       .  S
C789        C790   1.415       .  A
C790        C791   1.517       .  S
C791        F795   1.385       .  S
C791        F796   1.382       .  S
C791        F797   1.380       .  S
C794        F798   1.381       .  S
C794        F799   1.382       .  S
C794        F800   1.384       .  S
C801        C802   1.412       .  A
C801        C806   1.412       .  A
C801        H808   1.083       .  S
C802        C803   1.417       .  A
C803        C804   1.403       .  A
C803        C810   1.522       .  S
C804        C805   1.408       .  A
C804        H809   1.082       .  S
C805        C806   1.416       .  A
C806        C807   1.518       .  S
C807        F811   1.385       .  S
C807        F812   1.384       .  S
C807        F813   1.382       .  S
C810        F814   1.384       .  S
C810        F815   1.383       .  S
C810        F816   1.384       .  S
C817        C818   1.401   1_455  A
C817        C822   1.406       .  A
C817        H824   1.081   1_455  S
C818        C819   1.432   1_655  A
C819        C820   1.411       .  A
C819        C826   1.523       .  S
C820        C821   1.402       .  A
C820        H825   1.081       .  S
C821        C822   1.428       .  A
C822        C823   1.515       .  S
C823        F827   1.383       .  S
C823        F828   1.383       .  S
C823        F829   1.382       .  S
C826        F830   1.384       .  S
C826        F831   1.381   1_455  S
C826        F832   1.385       .  S
C833        C834   1.398       .  A
C833        C838   1.406       .  A
C833        H840   1.084       .  S
C834        C835   1.421       .  A
C835        C836   1.406       .  A
C835        C842   1.519       .  S
C836        C837   1.399       .  A
C836        H841   1.083       .  S
C837        C838   1.423       .  A
C839        F843   1.385       .  S
C839        F844   1.382   1_554  S
C839        F845   1.384   1_554  S
C842        F846   1.381       .  S
C842        F847   1.384       .  S
C842        F848   1.384       .  S
C849        C850   1.410       .  A
C849        C854   1.410       .  A
C849        H856   1.083       .  S
C850        C851   1.411       .  A
C851        C852   1.410       .  A
C851        C858   1.519       .  S
C852        C853   1.413       .  A
C852        H857   1.082       .  S
C853        C854   1.414       .  A
C854        C855   1.518       .  S
C855        F859   1.384       .  S
C855        F860   1.383       .  S
C855        F861   1.384       .  S
C858        F862   1.382       .  S
C858        F863   1.382       .  S
C858        F864   1.385       .  S
C865        C866   1.404       .  A
C865        C870   1.406       .  A
C865        H872   1.083       .  S
C866        C867   1.417       .  A
C867        C868   1.412       .  A
C867        C874   1.515       .  S
C868        C869   1.410       .  A
C868        H873   1.082   1_565  S
C869        C870   1.425       .  A
C870        C871   1.522       .  S
C871        F875   1.384       .  S
C871        F876   1.383       .  S
C871        F877   1.382   1_565  S
C874        F878   1.382       .  S
C874        F879   1.383       .  S
C874        F880   1.385       .  S
C881        C882   1.403       .  A
C881        C886   1.411       .  A
C881        H888   1.085       .  S
C883        C884   1.402       .  A
C883        C890   1.517       .  S
C884        C885   1.405   1_556  A
C884        H889   1.085       .  S
C886        C887   1.518       .  S
C887        F891   1.385       .  S
C887        F892   1.384       .  S
C887        F893   1.382       .  S
C890        F894   1.380       .  S
C890        F895   1.379       .  S
C890        F896   1.385       .  S
C897        C898   1.395       .  A
C897        C902   1.401       .  A
C897        H904   1.084       .  S
C898        C899   1.412       .  A
C899        C900   1.404       .  A
C899        C906   1.514       .  S
C900        C901   1.410       .  A
C900        H905   1.085   1_565  S
C901        C902   1.427       .  A
C902        C903   1.517       .  S
C903        F907   1.383       .  S
C903        F908   1.383       .  S
C903        F909   1.373   1_565  S
C906        F910   1.379       .  S
C906        F911   1.383       .  S
C906        F912   1.384       .  S
C913        C914   1.398       .  A
C913        C918   1.404       .  A
C913        H920   1.084       .  S
C914        C915   1.427       .  A
C915        C916   1.407       .  A
C916        C917   1.400       .  A
C916        H921   1.084       .  S
C917        C918   1.425       .  A
C918        C919   1.515       .  S
C919        F923   1.385       .  S
C919        F924   1.382       .  S
C919        F925   1.382       .  S
C922        F926   1.380       .  S
C922        F927   1.380       .  S
C922        F928   1.385       .  S
C929        C930   1.412       .  A
C929        C934   1.400       .  A
C929        H936   1.083       .  S
C930        C931   1.419       .  A
C931        C932   1.409       .  A
C931        C938   1.517       .  S
C932        C933   1.404       .  A
C932        H937   1.084       .  S
C933        C934   1.406       .  A
C934        C935   1.518       .  S
C935        F939   1.385       .  S
C935        F940   1.383       .  S
C935        F941   1.382       .  S
C938        F942   1.379       .  S
C938        F943   1.383       .  S
C938        F944   1.385       .  S
C945        C946   1.394       .  A
C945        C950   1.406       .  A
C945        H952   1.082       .  S
C946        C947   1.409       .  A
C947        C948   1.405       .  A
C947        C954   1.518       .  S
C948        C949   1.411       .  A
C948        H953   1.082       .  S
C949        C950   1.430       .  A
C950        C951   1.523       .  S
C951        F955   1.385       .  S
C951        F956   1.381       .  S
C951        F957   1.384       .  S
C954        F958   1.383       .  S
C954        F959   1.383       .  S
C954        F960   1.385       .  S
C961        C962   1.408       .  A
C961        C966   1.405       .  A
C961        H968   1.082       .  S
C963        C964   1.406       .  A
C963        C970   1.517       .  S
C964        C965   1.402       .  A
C964        H969   1.083       .  S
C966        C967   1.514       .  S
C967        F971   1.385       .  S
C967        F972   1.382       .  S
C967        F973   1.383       .  S
C970        F974   1.383       .  S
C970        F975   1.382       .  S
C970        F976   1.385       .  S
C977        C978   1.412       .  A
C977        C982   1.404       .  A
C977        H984   1.081       .  S
C978        C979   1.420       .  A
C979        C980   1.405       .  A
C979        C986   1.522       .  S
C980        C981   1.410       .  A
C980        H985   1.083       .  S
C981        C982   1.416       .  A
C982        C983   1.518   1_655  S
C983        F987   1.385   1_455  S
C983        F988   1.378       .  S
C983        F989   1.383       .  S
C986        F990   1.384       .  S
C986        F991   1.384       .  S
C986        F992   1.383       .  S
C993        C994   1.408       .  A
C993        C998   1.415       .  A
C993       H1000   1.083       .  S
C994        C995   1.410       .  A
C995        C996   1.403       .  A
C995       C1002   1.518       .  S
C996        C997   1.410       .  A
C996       H1001   1.083       .  S
C997        C998   1.418       .  A
C998        C999   1.517       .  S
C999       F1003   1.385       .  S
C999       F1004   1.383       .  S
C999       F1005   1.384       .  S
C1002      F1006   1.382       .  S
C1002      F1007   1.384       .  S
C1002      F1008   1.384       .  S
C1009      C1014   1.410       .  A
C1009      H1016   1.081       .  S
C1010      C1011   1.421       .  A
C1011      C1018   1.523       .  S
C1012      C1013   1.405       .  A
C1012      H1017   1.081       .  S
C1013      C1014   1.413       .  A
C1014      C1015   1.519       .  S
C1015      F1019   1.385       .  S
C1015      F1020   1.383       .  S
C1015      F1021   1.384       .  S
C1018      F1022   1.382       .  S
C1018      F1023   1.384       .  S
C1018      F1024   1.385       .  S
C1025      C1026   1.395       .  A
C1025      C1030   1.408       .  A
C1025      H1032   1.083       .  S
C1026      C1027   1.422       .  A
C1027      C1028   1.410       .  A
C1027      C1034   1.521       .  S
C1028      C1029   1.406       .  A
C1028      H1033   1.082       .  S
C1029      C1030   1.436       .  A
C1030      C1031   1.524       .  S
C1031      F1035   1.384       .  S
C1031      F1036   1.381       .  S
C1031      F1037   1.383       .  S
C1034      F1038   1.381       .  S
C1034      F1039   1.382       .  S
C1034      F1040   1.385       .  S
C1041      C1042   1.404       .  A
C1041      C1046   1.413   1_655  A
C1041      H1048   1.085       .  S
C1042      C1043   1.415       .  A
C1043      C1044   1.409       .  A
C1043      C1050   1.518       .  S
C1044      C1045   1.404   1_655  A
C1044      H1049   1.083       .  S
C1045      C1046   1.421       .  A
C1046      C1047   1.516       .  S
C1047      F1051   1.383       .  S
C1047      F1052   1.383       .  S
C1047      F1053   1.382       .  S
C1050      F1054   1.382       .  S
C1050      F1055   1.383       .  S
C1050      F1056   1.383       .  S
C1057      C1058   1.411       .  A
C1057      C1062   1.411       .  A
C1057      H1064   1.084       .  S
C1058      C1059   1.413       .  A
C1059      C1060   1.407       .  A
C1059      C1066   1.516       .  S
C1060      C1061   1.408       .  A
C1060      H1065   1.084       .  S
C1061      C1062   1.413       .  A
C1062      C1063   1.516       .  S
C1063      F1067   1.384       .  S
C1063      F1068   1.383       .  S
C1063      F1069   1.379       .  S
C1066      F1070   1.383       .  S
C1066      F1071   1.382       .  S
C1066      F1072   1.384       .  S
C1073      C1074   1.400       .  A
C1073      C1078   1.410       .  A
C1073      H1080   1.084       .  S
C1074      C1075   1.429       .  A
C1075      C1076   1.411       .  A
C1075      C1082   1.519       .  S
C1076      C1077   1.397       .  A
C1076      H1081   1.084       .  S
C1077      C1078   1.423       .  A
C1078      C1079   1.518       .  S
C1079      F1083   1.385       .  S
C1079      F1084   1.382       .  S
C1079      F1085   1.384       .  S
C1082      F1086   1.382       .  S
C1082      F1087   1.383       .  S
C1082      F1088   1.385       .  S
C1089      C1090   1.408       .  A
C1089      C1094   1.409       .  A
C1089      H1096   1.083       .  S
C1090      C1091   1.412       .  A
C1091      C1092   1.406       .  A
C1091      C1098   1.517       .  S
C1092      C1093   1.408       .  A
C1092      H1097   1.083       .  S
C1093      C1094   1.413       .  A
C1094      C1095   1.515       .  S
C1095      F1099   1.385       .  S
C1095      F1100   1.382       .  S
C1095      F1101   1.380       .  S
C1098      F1102   1.382       .  S
C1098      F1103   1.383   1_545  S
C1098      F1104   1.381       .  S
C1105      C1106   1.406       .  A
C1105      C1110   1.409       .  A
C1105      H1112   1.085       .  S
C1106      C1107   1.414       .  A
C1107      C1108   1.408       .  A
C1107      C1114   1.517       .  S
C1108      C1109   1.406       .  A
C1108      H1113   1.083       .  S
C1109      C1110   1.418       .  A
C1110      C1111   1.519   1_545  S
C1111      F1115   1.384       .  S
C1111      F1116   1.381       .  S
C1111      F1117   1.383       .  S
C1114      F1118   1.383       .  S
C1114      F1119   1.383       .  S
C1114      F1120   1.385       .  S
