geometry optimzed in LAMMPS
_audit_creation_date              2020-11-30 
_audit_creation_method            'lammps2cif' 
_symmetry_space_group_name_H-M    'P1' 
_symmetry_Int_Tables_number       1 
_symmetry_cell_setting            triclinic 
loop_ 
_symmetry_equiv_pos_as_xyz 
  x,y,z 
_cell_length_a                    43.319184908283724 
_cell_length_b                    44.51235102933395 
_cell_length_c                    33.46587086375682 
_cell_angle_alpha                 90.14793435281766 
_cell_angle_beta                  89.45580590116377 
_cell_angle_gamma                 89.78715598147826 
loop_ 
_atom_site_label 
_atom_site_type_symbol 
_atom_site_fract_x 
_atom_site_fract_y 
_atom_site_fract_z 
_atom_site_charge 
O1          O  0.84919395  0.09420752  0.56598861    -0.83010
C2          C  0.87613784  0.99500717  0.66204516     0.96340
O3          O  0.89080833  0.00218387  0.63050831    -0.72130
O4          O  0.85155628  0.00784249  0.57337028    -0.75720
Al5        Al  0.88332672  0.03267312  0.59134258     1.48980
C6          C  0.82732594  0.01603377  0.55625157     0.91600
O7          O  0.79827146  0.05235647  0.63848775    -0.81940
O8          O  0.87203921  0.09987171  0.66996287    -0.75500
Al9        Al  0.82572544  0.07219196  0.60296797     1.90120
O10         O  0.82483054  0.06177145  0.69255585    -0.74570
O11         O  0.91168225  0.05335250  0.66989980    -0.74420
O12         O  0.86216036  0.01500377  0.68225039    -0.80080
O13         O  0.91841162  0.05484413  0.60530255    -0.78280
O14         O  0.85863634  0.05400855  0.62279043    -1.14420
O15         O  0.88065034  0.05863255  0.54545866    -0.73610
C16         C  0.86857858  0.08427784  0.54106471     0.97110
C17         C  0.79962202  0.05549522  0.67584402     0.93500
Al18       Al  0.86701996  0.05730648  0.67468753     1.55560
O19         O  0.81613977  0.04182296  0.56338785    -0.78230
C20         C  0.92945902  0.05535484  0.63982084     0.97670
C21         C  0.85205382  0.11748213  0.65527207     0.92550
O22         O  0.82900395  0.10693612  0.63701250    -0.83550
O23         O  0.85167270  0.35273679  0.57968457    -0.83010
C24         C  0.87526082  0.24528121  0.65959896     0.96340
O25         O  0.89212634  0.25461417  0.63093424    -0.72130
O26         O  0.85832862  0.26822535  0.56973592    -0.75720
Al27       Al  0.88825315  0.29001088  0.59822170     1.48980
C28         C  0.83458874  0.27860053  0.55354637     0.91600
O29         O  0.80079131  0.30507724  0.64548043    -0.81940
O30         O  0.87528405  0.34760189  0.68607983    -0.75500
Al31       Al  0.82908695  0.32757782  0.61364411     1.90120
O32         O  0.82609899  0.31064986  0.70109619    -0.74570
O33         O  0.91241649  0.29992658  0.68256003    -0.74420
O34         O  0.86172948  0.26330940  0.68346061    -0.80080
O35         O  0.92262280  0.30916471  0.62004104    -0.78280
O36         O  0.86176626  0.30757515  0.63144907    -1.14420
O37         O  0.88801298  0.32172213  0.55963167    -0.73610
C38         C  0.87211050  0.34524040  0.55483753     0.97110
C39         C  0.80110647  0.30640265  0.68304294     0.93500
Al40       Al  0.86828689  0.30551408  0.68415923     1.55560
O41         O  0.82047422  0.30084066  0.56892430    -0.78230
C42         C  0.93142369  0.30635502  0.65529870     0.97670
C43         C  0.85725212  0.36723689  0.67181607     0.92550
O44         O  0.83322355  0.35965057  0.65272693    -0.83550
O45         O  0.13547981  0.02860386  0.57334562    -0.83010
C46         C  0.11788097  0.13443484  0.66240631     0.96340
O47         O  0.10406869  0.12829182  0.63028888    -0.72130
O48         O  0.14401353  0.11588886  0.57328299    -0.75720
Al49       Al  0.10923896  0.09528422  0.59355146     1.48980
C50         C  0.16579320  0.10310292  0.55467313     0.91600
O51         O  0.19215703  0.06903141  0.63970186    -0.81940
O52         O  0.11470974  0.03038030  0.67727688    -0.75500
Al53       Al  0.16218881  0.05015727  0.60709192     1.90120
O54         O  0.16484747  0.06676226  0.69536275    -0.74570
O55         O  0.07844445  0.07781343  0.67375142    -0.74420
O56         O  0.12980011  0.11405898  0.68340344    -0.80080
O57         O  0.07215955  0.07710102  0.60916337    -0.78280
O58         O  0.13149495  0.07281918  0.62631581    -1.14420
O59         O  0.10972468  0.06706319  0.54987356    -0.73610
C60         C  0.11812511  0.03990792  0.54731879     0.97110
C61         C  0.19059994  0.06936187  0.67744752     0.93500
Al62       Al  0.12269755  0.07235087  0.67839546     1.55560
O63         O  0.17376059  0.07668449  0.56393596    -0.78230
C64         C  0.06118399  0.07453084  0.64386681     0.97670
C65         C  0.13314464  0.51065189  0.66400821     0.92550
O66         O  0.15700987  0.01806425  0.64449262    -0.83550
O67         O  0.13775798  0.27333370  0.58211919    -0.83010
C68         C  0.11638991  0.38300613  0.65944995     0.96340
O69         O  0.10198626  0.37436890  0.62876044    -0.72130
O70         O  0.14219959  0.36048323  0.57225897    -0.75720
Al71       Al  0.10811845  0.33964516  0.59536919     1.48980
C72         C  0.16462479  0.34719060  0.55552647     0.91600
O73         O  0.19190882  0.32049789  0.64376453    -0.81940
O74         O  0.11655857  0.27986168  0.68543961    -0.75500
Al75       Al  0.16318216  0.29799923  0.61344313     1.90120
O76         O  0.16472158  0.31903873  0.69916316    -0.74570
O77         O  0.07912446  0.32640652  0.67768354    -0.74420
O78         O  0.12863606  0.36431661  0.68281231    -0.80080
O79         O  0.07150434  0.32085379  0.61352470    -0.78280
O80         O  0.13141552  0.32014324  0.63016494    -1.14420
O81         O  0.11004432  0.30917648  0.55479656    -0.73610
C82         C  0.12086331  0.28278344  0.55436380     0.97110
C83         C  0.19032679  0.32260445  0.68136467     0.93500
Al84       Al  0.12290615  0.32228136  0.68221422     1.55560
O85         O  0.17357178  0.32193124  0.56788102    -0.78230
C86         C  0.06154598  0.32067662  0.64894418     0.97670
C87         C  0.13646833  0.26052595  0.67474268     0.92550
O88         O  0.15953783  0.26823569  0.65393093    -0.83550
O89         O  0.85074770  0.15210421  0.37914463    -0.83010
C90         C  0.87842332  0.25554915  0.28971959     0.96340
O91         O  0.89051461  0.24818449  0.32251507    -0.72130
O92         O  0.84700460  0.23974620  0.37436999    -0.75720
Al93       Al  0.88165261  0.21669315  0.35944226     1.48980
C94         C  0.82586547  0.22955915  0.39638009     0.91600
O95         O  0.79897170  0.19779242  0.31252053    -0.81940
O96         O  0.87317518  0.15095859  0.27678096    -0.75500
Al97       Al  0.82634017  0.17595528  0.34551077     1.90120
O98         O  0.82621455  0.19106834  0.25714952    -0.74570
O99         O  0.91337481  0.19564026  0.28173264    -0.74420
O100        O  0.86524017  0.23598187  0.26858309    -0.80080
O101        O  0.91852062  0.19640980  0.34691177    -0.78280
O102        O  0.85922122  0.19530212  0.32652130    -1.14420
O103        O  0.87790367  0.18909639  0.40401839    -0.73610
C104        C  0.86806837  0.16233523  0.40595797     0.97110
C105        C  0.80057524  0.19590373  0.27485246     0.93500
Al106      Al  0.86880448  0.19355279  0.27485682     1.55560
O107        O  0.81639382  0.20320278  0.38993659    -0.78230
C108        C  0.93017268  0.19392426  0.31250161     0.97670
C109        C  0.85204843  0.13357108  0.28861241     0.92550
O110        O  0.82903017  0.14396957  0.30765588    -0.83550
O111        O  0.85866722  0.39488727  0.37561214    -0.83010
C112        C  0.87051149  0.50662759  0.29974828     0.96340
O113        O  0.88185297  0.49990337  0.33329207    -0.72130
O114        O  0.84368595  0.48034657  0.38867812    -0.75720
Al115      Al  0.88059932  0.46438090  0.36537415     1.48980
C116        C  0.82332948  0.46431423  0.40502521     0.91600
O117        O  0.80120657  0.43774376  0.31317440    -0.81940
O118        O  0.88118988  0.40364923  0.27432543    -0.75500
Al119      Al  0.83127595  0.41731334  0.34398537     1.90120
O120        O  0.82962005  0.43936164  0.25820732    -0.74570
O121        O  0.91432158  0.45176897  0.28391112    -0.74420
O122        O  0.86266159  0.48677793  0.27499543    -0.80080
O123        O  0.92011390  0.45154643  0.34861693    -0.78280
O124        O  0.86101338  0.44261874  0.32894016    -1.14420
O125        O  0.88246548  0.43283052  0.40431762    -0.73610
C126        C  0.87430241  0.40556800  0.40394474     0.97110
C127        C  0.80357688  0.44061103  0.27568127     0.93500
Al128      Al  0.87108913  0.44520871  0.27704958     1.55560
O129        O  0.81728774  0.43883619  0.39077876    -0.78230
C130        C  0.93145449  0.45022468  0.31398910     0.97670
C131        C  0.86347243  0.38261741  0.28455822     0.92550
O132        O  0.83839731  0.38819101  0.30256069    -0.83550
O133        O  0.14022961  0.22808730  0.37784223    -0.83010
C134        C  0.11728751  0.11993403  0.29849664     0.96340
O135        O  0.10286016  0.12821399  0.32972200    -0.72130
O136        O  0.14440092  0.14030337  0.38426494    -0.75720
Al137      Al  0.11019198  0.16222377  0.36407556     1.48980
C138        C  0.16674465  0.15301369  0.40112310     0.91600
O139        O  0.19318128  0.18169510  0.31276778    -0.81940
O140        O  0.11730286  0.22314302  0.27527416    -0.75500
Al141      Al  0.16495381  0.20371995  0.34467861     1.90120
O142        O  0.16589460  0.18411730  0.25786066    -0.74570
O143        O  0.07966636  0.17671589  0.28403309    -0.74420
O144        O  0.12984929  0.13871833  0.27542068    -0.80080
O145        O  0.07361174  0.18189401  0.34871405    -0.78280
O146        O  0.13301676  0.18210328  0.32872243    -1.14420
O147        O  0.11328306  0.19195046  0.40579653    -0.73610
C148        C  0.12449617  0.21814853  0.40661946     0.97110
C149        C  0.19153229  0.18082178  0.27520634     0.93500
Al150      Al  0.12384841  0.18071458  0.27706390     1.55560
O151        O  0.17581711  0.17846948  0.38930498    -0.78230
C152        C  0.06261958  0.18214730  0.31407191     0.97670
C153        C  0.13708068  0.24246514  0.28552800     0.92550
O154        O  0.16058788  0.23460789  0.30512516    -0.83550
O155        O  0.14054045  0.47148769  0.38788081    -0.83010
C156        C  0.11754819  0.36914219  0.29524855     0.96340
O157        O  0.10369663  0.37524026  0.32784503    -0.72130
O158        O  0.14250393  0.38497443  0.38597309    -0.75720
Al159      Al  0.10909804  0.40758370  0.36553530     1.48980
C160        C  0.16587781  0.39591473  0.40258961     0.91600
O161        O  0.19323192  0.42893962  0.31621468    -0.81940
O162        O  0.11757068  0.47407503  0.28466469    -0.75500
Al163      Al  0.16498910  0.44920226  0.35154567     1.90120
O164        O  0.16542659  0.43643030  0.26274037    -0.74570
O165        O  0.07985148  0.42721215  0.28602135    -0.74420
O166        O  0.12980830  0.38955271  0.27431715    -0.80080
O167        O  0.07272554  0.42758185  0.35060155    -0.78280
O168        O  0.13267783  0.42925299  0.33298677    -1.14420
O169        O  0.10997317  0.43563663  0.40923602    -0.73610
C170        C  0.12110018  0.46169891  0.41287119     0.97110
C171        C  0.19116151  0.43120109  0.27868604     0.93500
Al172      Al  0.12384542  0.43153872  0.28112903     1.55560
O173        O  0.17575079  0.42137420  0.39244890    -0.78230
C174        C  0.06249869  0.43103479  0.31599611     0.97670
C175        C  0.13759142  0.99227739  0.29760808     0.92550
O176        O  0.16066303  0.48251339  0.31638506    -0.83550
O177        O  0.64222282  0.09463167  0.88225742    -0.83010
C178        C  0.61297511  0.99452315  0.78853285     0.96340
O179        O  0.59922404  0.00199327  0.82060059    -0.72130
O180        O  0.64254018  0.00716014  0.87251802    -0.75720
Al181      Al  0.60881456  0.03202095  0.85936564     1.48980
C182        C  0.66286822  0.01650604  0.89592593     0.91600
O183        O  0.69245912  0.04899620  0.81216632    -0.81940
O184        O  0.61950718  0.09950992  0.78174609    -0.75500
Al185      Al  0.66588153  0.07105564  0.84702091     1.90120
O186        O  0.66536596  0.05948604  0.75845661    -0.74570
O187        O  0.57840213  0.05472158  0.78325669    -0.74420
O188        O  0.62670332  0.01428115  0.76800661    -0.80080
O189        O  0.57289362  0.05440255  0.84835584    -0.78280
O190        O  0.63236551  0.05342651  0.82764260    -1.14420
O191        O  0.61327941  0.05814101  0.90534362    -0.73610
C192        C  0.62395319  0.08449868  0.90840439     0.97110
C193        C  0.69063417  0.05223971  0.77472746     0.93500
Al194      Al  0.62315399  0.05679234  0.77646017     1.55560
O195        O  0.67428797  0.04223204  0.88996750    -0.78230
C196        C  0.56139425  0.05717222  0.81416513     0.97670
C197        C  0.64069510  0.11634027  0.79496457     0.92550
O198        O  0.66418812  0.10472758  0.81109324    -0.83550
O199        O  0.63358069  0.35539513  0.87667493    -0.83010
C200        C  0.61868731  0.24435998  0.79924285     0.96340
O201        O  0.60217750  0.25306197  0.82863581    -0.72130
O202        O  0.63583056  0.26907622  0.88913968    -0.75720
Al203      Al  0.60412362  0.28896473  0.86094409     1.48980
C204        C  0.65748530  0.28197583  0.90692083     0.91600
O205        O  0.69033741  0.30811626  0.81693622    -0.81940
O206        O  0.61496818  0.34637945  0.77127942    -0.75500
Al207      Al  0.65986584  0.33046600  0.84604305     1.90120
O208        O  0.66585683  0.31032854  0.75992613    -0.74570
O209        O  0.57961653  0.29783887  0.77606159    -0.74420
O210        O  0.63172188  0.26284291  0.77599814    -0.80080
O211        O  0.56903944  0.30618863  0.83885944    -0.78280
O212        O  0.62929701  0.30784404  0.82768470    -1.14420
O213        O  0.60207160  0.32096385  0.89942693    -0.73610
C214        C  0.61439116  0.34653951  0.90242373     0.97110
C215        C  0.69049131  0.30701016  0.77924343     0.93500
Al216      Al  0.62357852  0.30465934  0.77493269     1.55560
O217        O  0.66866780  0.30613879  0.89312347    -0.78230
C218        C  0.56025344  0.30253753  0.80367295     0.97670
C219        C  0.63213308  0.36700989  0.78444157     0.92550
O220        O  0.65595801  0.36077276  0.80471690    -0.83550
O221        O  0.34734871  0.02332501  0.88273485    -0.83010
C222        C  0.37076229  0.12828748  0.79689729     0.96340
O223        O  0.38307491  0.12241587  0.83020269    -0.72130
O224        O  0.34219136  0.11030486  0.88531350    -0.75720
Al225      Al  0.37748237  0.08924048  0.86621039     1.48980
C226        C  0.31972559  0.09767603  0.90216901     0.91600
O227        O  0.29683447  0.06788237  0.81277950    -0.81940
O228        O  0.37459210  0.02316010  0.78331944    -0.75500
Al229      Al  0.32371614  0.04653773  0.84741939     1.90120
O230        O  0.32634121  0.06066098  0.75987263    -0.74570
O231        O  0.41148321  0.07123778  0.78779890    -0.74420
O232        O  0.36116025  0.10771863  0.77412056    -0.80080
O233        O  0.41604180  0.07184078  0.85263197    -0.78280
O234        O  0.35644054  0.06740301  0.83151562    -1.14420
O235        O  0.37506427  0.05975467  0.90873065    -0.73610
C236        C  0.36383532  0.03347424  0.91048322     0.97110
C237        C  0.29994318  0.06554992  0.77527539     0.93500
Al238      Al  0.36764187  0.06583918  0.78023578     1.55560
O239        O  0.31113587  0.07215391  0.89065886    -0.78230
C240        C  0.42825113  0.07086975  0.81844469     0.97670
C241        C  0.35376641  0.50488126  0.79424013     0.92550
O242        O  0.32906938  0.01480065  0.80955566    -0.83550
O243        O  0.35365118  0.27093102  0.87632633    -0.83010
C244        C  0.37634953  0.37738705  0.79217002     0.96340
O245        O  0.39181622  0.36920677  0.82212048    -0.72130
O246        O  0.35228199  0.35905132  0.87934945    -0.75720
Al247      Al  0.38514264  0.33598248  0.85763222     1.48980
C248        C  0.33176614  0.34738206  0.90094729     0.91600
O249        O  0.30030886  0.31931650  0.81504853    -0.81940
O250        O  0.37306898  0.27421552  0.77227837    -0.75500
Al251      Al  0.32854206  0.29603787  0.84507815     1.90120
O252        O  0.32514091  0.31365029  0.75811370    -0.74570
O253        O  0.41213384  0.31890902  0.77555639    -0.74420
O254        O  0.36288966  0.35854126  0.77025238    -0.80080
O255        O  0.42007368  0.31556887  0.83977034    -0.78280
O256        O  0.36060500  0.31614886  0.82534100    -1.14420
O257        O  0.38377628  0.30621601  0.89962606    -0.73610
C258        C  0.37308511  0.27978054  0.90145465     0.97110
C259        C  0.30038536  0.31905423  0.77730639     0.93500
Al260      Al  0.36776767  0.31636710  0.77291812     1.55560
O261        O  0.32069420  0.32212110  0.89130934    -0.78230
C262        C  0.42967170  0.31308957  0.80446802     0.97670
C263        C  0.35364146  0.25545491  0.78504941     0.92550
O264        O  0.33035747  0.26437520  0.80524446    -0.83550
O265        O  0.64267659  0.14956711  0.07202247    -0.83010
C266        C  0.61305568  0.25224587  0.16208094     0.96340
O267        O  0.59888593  0.24312949  0.13176329    -0.72130
O268        O  0.64323281  0.23698234  0.08067712    -0.75720
Al269      Al  0.60973412  0.21260678  0.09435192     1.48980
C270        C  0.66576075  0.22803512  0.05979778     0.91600
O271        O  0.69308483  0.19410827  0.14212212    -0.81940
O272        O  0.61926630  0.14770495  0.17655354    -0.75500
Al273      Al  0.66618309  0.17275483  0.10767140     1.90120
O274        O  0.66506737  0.18756923  0.19655067    -0.74570
O275        O  0.57871453  0.19258345  0.17143806    -0.74420
O276        O  0.62703044  0.23338573  0.18378245    -0.80080
O277        O  0.57412424  0.19012651  0.10628081    -0.78280
O278        O  0.63293081  0.19164346  0.12679381    -1.14420
O279        O  0.61512945  0.18687683  0.04883333    -0.73610
C280        C  0.62547652  0.16046179  0.04558223     0.97110
C281        C  0.69064863  0.19321085  0.17970642     0.93500
Al282      Al  0.62326217  0.19037836  0.17835396     1.55560
O283        O  0.67621029  0.20178047  0.06538632    -0.78230
C284        C  0.56225504  0.18859753  0.14073061     0.97670
C285        C  0.63966604  0.12952863  0.16366091     0.92550
O286        O  0.66256484  0.13922725  0.14371328    -0.83550
O287        O  0.63747315  0.39342816  0.08326845    -0.83010
C288        C  0.61864844  0.50138625  0.16687388     0.96340
O289        O  0.60059683  0.49256303  0.13950979    -0.72130
O290        O  0.63472100  0.47999479  0.07704442    -0.75720
Al291      Al  0.60448158  0.45768528  0.10465038     1.48980
C292        C  0.65589465  0.46834221  0.05626463     0.91600
O293        O  0.69238480  0.44088021  0.14394170    -0.81940
O294        O  0.61854561  0.39890141  0.19024276    -0.75500
Al295      Al  0.66255610  0.41843281  0.11462558     1.90120
O296        O  0.66879256  0.43514263  0.20157865    -0.74570
O297        O  0.58163492  0.44688990  0.18923859    -0.74420
O298        O  0.63346902  0.48277185  0.18795473    -0.80080
O299        O  0.57060424  0.43770584  0.12698860    -0.78280
O300        O  0.63112594  0.43903793  0.13543026    -1.14420
O301        O  0.60422065  0.42709820  0.06359874    -0.73610
C302        C  0.61835744  0.40256287  0.05805036     0.97110
C303        C  0.69320762  0.43954593  0.18157112     0.93500
Al304      Al  0.62606390  0.44078495  0.18832780     1.55560
O305        O  0.66949779  0.44479062  0.06839776    -0.78230
C306        C  0.56210423  0.44130432  0.16250839     0.97670
C307        C  0.63658722  0.37924044  0.17561358     0.92550
O308        O  0.65989838  0.38669334  0.15443700    -0.83550
O309        O  0.35434935  0.22141795  0.06836445    -0.83010
C310        C  0.37050876  0.11843154  0.16197483     0.96340
O311        O  0.38351702  0.12267177  0.12848365    -0.72130
O312        O  0.34406810  0.13476688  0.07245670    -0.75720
Al313      Al  0.37990104  0.15460541  0.09044055     1.48980
C314        C  0.32250940  0.14779006  0.05448074     0.91600
O315        O  0.29909594  0.18295550  0.13971555    -0.81940
O316        O  0.37734092  0.22402059  0.17052221    -0.75500
Al317      Al  0.32825594  0.20128748  0.10459274     1.90120
O318        O  0.32738810  0.18887907  0.19325995    -0.74570
O319        O  0.41256772  0.17466041  0.16809341    -0.74420
O320        O  0.36066906  0.14016120  0.18288149    -0.80080
O321        O  0.41864742  0.17076745  0.10343493    -0.78280
O322        O  0.35916318  0.17909363  0.12306640    -1.14420
O323        O  0.38000757  0.18193108  0.04592379    -0.73610
C324        C  0.37171752  0.20912334  0.04259742     0.97110
C325        C  0.30140181  0.18476135  0.17725217     0.93500
Al326      Al  0.36882981  0.18168927  0.17456565     1.55560
O327        O  0.31544943  0.17443956  0.06339616    -0.78230
C328        C  0.42998518  0.17326584  0.13767934     0.97670
C329        C  0.35775660  0.24316631  0.15861024     0.92550
O330        O  0.33430839  0.23436869  0.13994508    -0.83550
O331        O  0.35565316  0.47570428  0.08319050    -0.83010
C332        C  0.38009395  0.37104913  0.16806601     0.96340
O333        O  0.39825135  0.38083594  0.14127216    -0.72130
O334        O  0.35980258  0.38823315  0.08300391    -0.75720
Al335      Al  0.39014923  0.41345276  0.10452861     1.48980
C336        C  0.33913935  0.39775932  0.06024587     0.91600
O337        O  0.30160195  0.42704801  0.14327435    -0.81940
O338        O  0.37085296  0.47399176  0.18939893    -0.75500
Al339      Al  0.33056335  0.45029788  0.11389780     1.90120
O340        O  0.32445192  0.43270942  0.20111298    -0.74570
O341        O  0.41223769  0.42966452  0.18716105    -0.74420
O342        O  0.36391533  0.38894558  0.18887100    -0.80080
O343        O  0.42305849  0.43684489  0.12374709    -0.78280
O344        O  0.36275699  0.43184669  0.13532290    -1.14420
O345        O  0.38748379  0.44133775  0.06001179    -0.73610
C346        C  0.37395744  0.46643483  0.05652722     0.97110
C347        C  0.30064789  0.42705082  0.18097307     0.93500
Al348      Al  0.36753964  0.43137442  0.18787309     1.55560
O349        O  0.32574902  0.42248548  0.06846742    -0.78230
C350        C  0.43129113  0.43632648  0.15972995     0.97670
C351        C  0.35112907  0.49208070  0.17525086     0.92550
O352        O  0.32980336  0.48256154  0.15275120    -0.83550
C353        C  0.36210479  0.27612670  0.16531107    -0.07340
C354        C  0.39027993  0.28658861  0.18087270    -0.18470
C355        C  0.39666214  0.31749303  0.18387514     0.09860
C356        C  0.37454604  0.33853840  0.17097246    -0.07260
C357        C  0.34642752  0.32837514  0.15621648    -0.18500
C358        C  0.33971704  0.29784520  0.15353378     0.09890
S359        S  0.43339595  0.32865695  0.20383926    -0.33460
S360        S  0.30228774  0.28906431  0.13348940    -0.33470
H361        H  0.29417987  0.27016223  0.16545466     0.27900
H362        H  0.42405404  0.35736903  0.21685228     0.27890
H363        H  0.40777928  0.27065271  0.19002386     0.18490
H364        H  0.32965267  0.34455764  0.14553673     0.18490
C365        C  0.36547464  0.08732215  0.17524302    -0.07340
C366        C  0.33524278  0.07619680  0.17485980    -0.18470
C367        C  0.32939480  0.04535810  0.17837749     0.09860
C368        C  0.35440302  0.02496045  0.18207695    -0.07260
C369        C  0.38435769  0.03663162  0.18617429    -0.18500
C370        C  0.39018658  0.06742173  0.18228035     0.09890
S371        S  0.28961292  0.03360229  0.17726896    -0.33460
S372        S  0.42977108  0.07973818  0.18456513    -0.33470
H373        H  0.42330629  0.10949937  0.19618808     0.27900
H374        H  0.29372189  0.00916059  0.20331074     0.27890
H375        H  0.31613888  0.09149099  0.16978047     0.18490
H376        H  0.40370553  0.02155853  0.19022061     0.18490
C377        C  0.52886045  0.44193856  0.17079045    -0.07340
C378        C  0.51237103  0.46658398  0.15597496    -0.18470
C379        C  0.48018272  0.46648461  0.15470756     0.09860
C380        C  0.46398510  0.44115612  0.16895269    -0.07260
C381        C  0.48040379  0.41742335  0.18659087    -0.18500
C382        C  0.51276083  0.41724680  0.18685076     0.09890
S383        S  0.46163226  0.99906722  0.13346382    -0.33460
S384        S  0.53203195  0.38410707  0.20515709    -0.33470
H385        H  0.55690600  0.38475019  0.17792599     0.27900
H386        H  0.43126926  0.49243732  0.14508918     0.27890
H387        H  0.52480414  0.48553654  0.14351899     0.18490
H388        H  0.46807291  0.39780303  0.19716914     0.18490
C389        C  0.61447677  0.28529835  0.16996492    -0.07340
C390        C  0.63204854  0.29608526  0.20219437    -0.18470
C391        C  0.63824011  0.32691461  0.20683181     0.09860
C392        C  0.62788511  0.34734004  0.17765345    -0.07260
C393        C  0.60916929  0.33699851  0.14689172    -0.18500
C394        C  0.60168666  0.30672095  0.14312939     0.09890
S395        S  0.65930455  0.33845218  0.25037190    -0.33460
S396        S  0.57622183  0.29776815  0.10247321    -0.33470
H397        H  0.55609270  0.28084170  0.12669784     0.27900
H398        H  0.65080548  0.36892951  0.24941625     0.27890
H399        H  0.64152803  0.28041665  0.22356958     0.18490
H400        H  0.60036405  0.35282112  0.12515942     0.18490
C401        C  0.63598938  0.09649333  0.17018021    -0.07340
C402        C  0.60652262  0.08540964  0.18060337    -0.18470
C403        C  0.60037613  0.05446365  0.18168081     0.09860
C404        C  0.62407884  0.03383235  0.17212347    -0.07260
C405        C  0.65370851  0.04456449  0.16340832    -0.18500
C406        C  0.66003668  0.07536690  0.16249135     0.09890
S407        S  0.56181993  0.04271533  0.19497499    -0.33460
S408        S  0.69928323  0.08566257  0.15072718    -0.33470
H409        H  0.70078311  0.10746998  0.18109826     0.27900
H410        H  0.57007042  0.01429789  0.20981027     0.27890
H411        H  0.58774002  0.10093080  0.18675987     0.18490
H412        H  0.67200445  0.02871869  0.15608290     0.18490
C413        C  0.52869068  0.18295287  0.14419279    -0.07340
C414        C  0.51570008  0.16214537  0.11777009    -0.18470
C415        C  0.48387324  0.15736168  0.11673665     0.09860
C416        C  0.46399302  0.17442694  0.14185255    -0.07260
C417        C  0.47700572  0.19429986  0.16962362    -0.18500
C418        C  0.50903011  0.19898408  0.17077996     0.09890
S419        S  0.47032306  0.12848721  0.08339021    -0.33460
S420        S  0.52295619  0.22736694  0.20453184    -0.33470
H421        H  0.54377062  0.24000804  0.17691291     0.27900
H422        H  0.44700617  0.11829374  0.10947037     0.27890
H423        H  0.53056092  0.14936083  0.09772614     0.18490
H424        H  0.46203819  0.20747073  0.18905763     0.18490
C425        C  0.32911765  0.35856571  0.94255447    -0.07340
C426        C  0.35574010  0.35428124  0.96489428    -0.18470
C427        C  0.35875015  0.36489590  0.00361920     0.09860
C428        C  0.33431465  0.38183213  0.02141188    -0.07260
C429        C  0.30716528  0.38640201  0.99899969    -0.18500
C430        C  0.30412683  0.37454794  0.95989030     0.09890
S431        S  0.39540049  0.35733530  0.02752778    -0.33460
S432        S  0.26890237  0.38211221  0.93340935    -0.33470
H433        H  0.27449208  0.36318722  0.90049171     0.27900
H434        H  0.41277558  0.34931597  0.99339629     0.27890
H435        H  0.37515748  0.34316695  0.95126430     0.18490
H436        H  0.28848305  0.39966006  0.01169188     0.18490
C437        C  0.38013520  0.22615311  0.00654938    -0.07340
C438        C  0.37736483  0.21189976  0.96934622    -0.18470
C439        C  0.37787628  0.22842990  0.93387314     0.09860
C440        C  0.38085246  0.26009500  0.93557417    -0.07260
C441        C  0.38695687  0.27371153  0.97258857    -0.18500
C442        C  0.38652955  0.25717385  0.00799526     0.09890
S443        S  0.37385304  0.20767680  0.88785577    -0.33460
S444        S  0.39310006  0.27714358  0.05415790    -0.33470
H445        H  0.40588626  0.25255665  0.07462293     0.27900
H446        H  0.39145968  0.22754580  0.86454586     0.27890
H447        H  0.37299969  0.18796107  0.96796528     0.18490
H448        H  0.39043080  0.29760604  0.97445877     0.18490
C449        C  0.30777140  0.11009115  0.94020045    -0.07340
C450        C  0.30831057  0.09094527  0.97351158    -0.18470
C451        C  0.30925947  0.10244238  0.01240872     0.09860
C452        C  0.30947814  0.13386797  0.01824600    -0.07260
C453        C  0.30456818  0.15275900  0.98520090    -0.18500
C454        C  0.30389018  0.14118221  0.94632415     0.09890
S455        S  0.31278993  0.07597553  0.05289365    -0.33460
S456        S  0.30022716  0.16717766  0.90551116    -0.33470
H457        H  0.28657544  0.14622619  0.87967568     0.27900
H458        H  0.29974284  0.09500029  0.08220774     0.27890
H459        H  0.31118290  0.06699883  0.96922581     0.18490
H460        H  0.30428819  0.17693924  0.98911589     0.18490
C461        C  0.37410261  0.48267160  0.01837066    -0.07340
C462        C  0.34527112  0.48547421  0.00021005    -0.18470
C463        C  0.34160469  0.00129396  0.96474423     0.09860
C464        C  0.36753996  0.01515247  0.94678481    -0.07260
C465        C  0.39664974  0.01219647  0.96465291    -0.18500
C466        C  0.40030643  0.49573847  0.00013936     0.09890
S467        S  0.30316692  0.00481781  0.94438576    -0.33460
S468        S  0.43855622  0.49292668  0.02059783    -0.33470
H469        H  0.42980470  0.48433746  0.05931140     0.27900
H470        H  0.28757876  0.98713315  0.97283622     0.27890
H471        H  0.32531575  0.47521618  0.01428481     0.18490
H472        H  0.41657542  0.02274498  0.95088917     0.18490
C473        C  0.35786608  0.47179711  0.79021384    -0.07340
C474        C  0.38208688  0.46022987  0.76621802    -0.18470
C475        C  0.38822649  0.42920533  0.76434728     0.09860
C476        C  0.36998756  0.40943245  0.78728522    -0.07260
C477        C  0.34564097  0.42067139  0.81038400    -0.18500
C478        C  0.33919054  0.45122092  0.81213711     0.09890
S479        S  0.42005942  0.41653272  0.73344956    -0.33460
S480        S  0.30794228  0.46165647  0.84540047    -0.33470
H481        H  0.28988832  0.47327392  0.81424456     0.27900
H482        H  0.41139309  0.38622131  0.73081397     0.27890
H483        H  0.39658516  0.47541180  0.74921806     0.18490
H484        H  0.33178996  0.40536168  0.82819257     0.18490
C485        C  0.36591772  0.15991519  0.78620294    -0.07340
C486        C  0.39161861  0.17839700  0.78059293    -0.18470
C487        C  0.38819951  0.20942617  0.77538665     0.09860
C488        C  0.35840231  0.22270946  0.77850016    -0.07260
C489        C  0.33264225  0.20376125  0.78177444    -0.18500
C490        C  0.33603630  0.17264203  0.78534120     0.09890
S491        S  0.42301233  0.23055740  0.76713462    -0.33460
S492        S  0.30126592  0.15080725  0.79080759    -0.33470
H493        H  0.31333230  0.12895903  0.81651444     0.27900
H494        H  0.41168291  0.24479764  0.73273490     0.27890
H495        H  0.41456771  0.16859148  0.78071820     0.18490
H496        H  0.30963117  0.21336674  0.78341412     0.18490
C497        C  0.66564025  0.27143472  0.94758868    -0.07340
C498        C  0.68965983  0.25067057  0.95416538    -0.18470
C499        C  0.69371032  0.23763639  0.99237314     0.09860
C500        C  0.67471810  0.24715148  0.02485063    -0.07260
C501        C  0.65543436  0.27199915  0.01889437    -0.18500
C502        C  0.64754123  0.28077624  0.98070616     0.09890
S503        S  0.72269555  0.20893525  0.99761822    -0.33460
S504        S  0.60932654  0.29603858  0.97592404    -0.33470
H505        H  0.60802988  0.31078539  0.01315815     0.27900
H506        H  0.72913873  0.21601597  0.03769526     0.27890
H507        H  0.70380622  0.24315009  0.92921099     0.18490
H508        H  0.64145375  0.28057017  0.04338749     0.18490
C509        C  0.61589142  0.38667955  0.01921140    -0.07340
C510        C  0.58740665  0.38478665  0.99945363    -0.18470
C511        C  0.58530668  0.37217515  0.96085272     0.09860
C512        C  0.61265967  0.36301752  0.94069153    -0.07260
C513        C  0.64092383  0.36557883  0.96028173    -0.18500
C514        C  0.64281173  0.37647039  0.99905943     0.09890
S515        S  0.54733899  0.36925165  0.93950539    -0.33460
S516        S  0.68084340  0.37780630  0.02011364    -0.33470
H517        H  0.68532316  0.40751896  0.00710386     0.27900
H518        H  0.55537867  0.35471833  0.90373583     0.27890
H519        H  0.56666892  0.39290721  0.01432842     0.18490
H520        H  0.66195555  0.35780037  0.94566589     0.18490
C521        C  0.52688168  0.30146366  0.79696107    -0.07340
C522        C  0.50965574  0.28508361  0.82495633    -0.18470
C523        C  0.47766191  0.28621162  0.82564351     0.09860
C524        C  0.46216604  0.30471052  0.79796891    -0.07260
C525        C  0.47914672  0.31876392  0.76733939    -0.18500
C526        C  0.51150029  0.31747705  0.76666929     0.09890
S527        S  0.45841036  0.26416863  0.86365550    -0.33460
S528        S  0.53148968  0.33842766  0.72848372    -0.33470
H529        H  0.55491554  0.34898551  0.75340188     0.27900
H530        H  0.43080437  0.26044582  0.84269244     0.27890
H531        H  0.52135692  0.27182347  0.84739003     0.18490
H532        H  0.46737978  0.33268627  0.74573065     0.18490
C533        C  0.66623024  0.00042322  0.93467453    -0.07340
C534        C  0.63913924  0.98681866  0.94836611    -0.18470
C535        C  0.63515006  0.47804774  0.98762872     0.09860
C536        C  0.66018837  0.47932590  0.01455435    -0.07260
C537        C  0.68859524  0.49072191  0.00044188    -0.18500
C538        C  0.69157360  0.00216019  0.96105273     0.09890
S539        S  0.59600843  0.46913684  0.00175666    -0.33460
S540        S  0.72792095  0.01830853  0.94621543    -0.33470
H541        H  0.72484460  0.01184704  0.90528071     0.27900
H542        H  0.58706677  0.45699194  0.96475859     0.27890
H543        H  0.61914087  0.98589882  0.92929801     0.18490
H544        H  0.70806422  0.49173466  0.02045651     0.18490
C545        C  0.61857634  0.14233079  0.01006500    -0.07340
C546        C  0.61388955  0.11142241  0.01511570    -0.18470
C547        C  0.61235772  0.09207981  0.98229545     0.09860
C548        C  0.61686616  0.10369335  0.94339169    -0.07260
C549        C  0.61938381  0.13494393  0.93837946    -0.18500
C550        C  0.61993363  0.15436112  0.97110890     0.09890
S551        S  0.60740683  0.05277786  0.99266671    -0.33460
S552        S  0.62622337  0.19363330  0.96113672    -0.33470
H553        H  0.59881784  0.20274785  0.98060650     0.27900
H554        H  0.58192658  0.04993145  0.96718167     0.27890
H555        H  0.61228744  0.10214770  0.04497041     0.18490
H556        H  0.62233228  0.14427815  0.90871713     0.18490
C557        C  0.62336301  0.39878286  0.77869013    -0.07340
C558        C  0.64133687  0.41726123  0.75383281    -0.18470
C559        C  0.63623102  0.44849781  0.75229040     0.09860
C560        C  0.61380873  0.46188513  0.77796234    -0.07260
C561        C  0.59455295  0.44283466  0.80040967    -0.18500
C562        C  0.59895826  0.41182056  0.80112489     0.09890
S563        S  0.65950256  0.46973583  0.71776398    -0.33460
S564        S  0.57467213  0.39133157  0.83550488    -0.33470
H565        H  0.57520260  0.36376263  0.81575230     0.27900
H566        H  0.63440902  0.98668446  0.70361243     0.27890
H567        H  0.65973572  0.40735774  0.73596297     0.18490
H568        H  0.57670036  0.45228716  0.81960914     0.18490
C569        C  0.63766564  0.14970930  0.79280485    -0.07340
C570        C  0.61502610  0.16233564  0.76784007    -0.18470
C571        C  0.60844152  0.19326527  0.76847990     0.09860
C572        C  0.62481141  0.21211264  0.79463934    -0.07260
C573        C  0.64778931  0.19993503  0.81871880    -0.18500
C574        C  0.65472426  0.16932313  0.81788848     0.09890
S575        S  0.57873935  0.20703631  0.73573189    -0.33460
S576        S  0.68468692  0.15728680  0.85127386    -0.33470
H577        H  0.70322822  0.14568637  0.82005052     0.27900
H578        H  0.57101039  0.23306090  0.75749345     0.27890
H579        H  0.60180694  0.14795118  0.74829855     0.18490
H580        H  0.66044018  0.21453773  0.83869766     0.18490
C581        C  0.46247819  0.06978757  0.81458014    -0.07340
C582        C  0.47635815  0.05119824  0.78547652    -0.18470
C583        C  0.50856531  0.04708050  0.78385821     0.09860
C584        C  0.52760897  0.06243053  0.81129079    -0.07260
C585        C  0.51372916  0.08188985  0.83924313    -0.18500
C586        C  0.48172436  0.08610985  0.84075463     0.09890
S587        S  0.52361113  0.02017533  0.74832424    -0.33460
S588        S  0.46708829  0.11358157  0.87586172    -0.33470
H589        H  0.44485366  0.12518068  0.84964567     0.27900
H590        H  0.54410448  0.00666752  0.77528725     0.27890
H591        H  0.46194555  0.03862275  0.76516391     0.18490
H592        H  0.52803455  0.09412196  0.86007314     0.18490
C593        C  0.21883279  0.42930157  0.25270740    -0.07340
C594        C  0.23988241  0.40556315  0.25752664    -0.18470
C595        C  0.26578489  0.40272631  0.23227372     0.09860
C596        C  0.27096176  0.42425496  0.20207197    -0.07260
C597        C  0.24950558  0.44733436  0.19650594    -0.18500
C598        C  0.22384632  0.45033659  0.22165061     0.09890
S599        S  0.29106208  0.37097077  0.23923219    -0.33460
S600        S  0.19989399  0.98300055  0.21446517    -0.33470
H601        H  0.19697668  0.48877285  0.25542113     0.27900
H602        H  0.30133370  0.36965273  0.19932774     0.27890
H603        H  0.23588154  0.38895963  0.28059438     0.18490
H604        H  0.25383827  0.46432807  0.17400400     0.18490
C605        C  0.22020899  0.17943330  0.25143869    -0.07340
C606        C  0.24189327  0.20217745  0.25769032    -0.18470
C607        C  0.26841188  0.20426111  0.23391851     0.09860
C608        C  0.27361057  0.18317966  0.20293566    -0.07260
C609        C  0.25188247  0.16034927  0.19658796    -0.18500
C610        C  0.22541699  0.15805023  0.22088122     0.09890
S611        S  0.29338207  0.23588738  0.24209933    -0.33460
S612        S  0.19970383  0.12699477  0.21239924    -0.33470
H613        H  0.19011805  0.12428772  0.25245026     0.27900
H614        H  0.31721858  0.21793906  0.25756454     0.27890
H615        H  0.23765756  0.21903874  0.28054629     0.18490
H616        H  0.25586735  0.14390899  0.17315451     0.18490
C617        C  0.13199322  0.27487379  0.27757284    -0.07340
C618        C  0.10172546  0.28623770  0.28042092    -0.18470
C619        C  0.09602381  0.31718286  0.28340692     0.09860
C620        C  0.12104379  0.33739510  0.28321185    -0.07260
C621        C  0.15102329  0.32629127  0.27679987    -0.18500
C622        C  0.15677860  0.29538734  0.27382648     0.09890
S623        S  0.05646516  0.32946802  0.28867031    -0.33460
S624        S  0.19634671  0.28367342  0.26634490    -0.33470
H625        H  0.18917023  0.25769846  0.24428902     0.27900
H626        H  0.06095411  0.35799727  0.27163778     0.27890
H627        H  0.08244017  0.27090456  0.28263866     0.18490
H628        H  0.17034010  0.34172145  0.27621395     0.18490
C629        C  0.13387424  0.02530687  0.29234894    -0.07340
C630        C  0.10460955  0.03671591  0.28207578    -0.18470
C631        C  0.09861579  0.06769292  0.28176987     0.09860
C632        C  0.12236650  0.08779555  0.29158233    -0.07260
C633        C  0.15178178  0.07680673  0.29999319    -0.18500
C634        C  0.15799440  0.04599401  0.30076975     0.09890
S635        S  0.06019138  0.08017735  0.26962956    -0.33460
S636        S  0.19667360  0.03442388  0.31423567    -0.33470
H637        H  0.21063601  0.06288950  0.31286586     0.27900
H638        H  0.06862555  0.10895603  0.25629173     0.27890
H639        H  0.08588926  0.02143368  0.27560474     0.18490
H640        H  0.16963149  0.09261672  0.30808765     0.18490
C641        C  0.77553195  0.44200820  0.25141357    -0.07340
C642        C  0.76109301  0.41468675  0.24315000    -0.18470
C643        C  0.73521179  0.41343163  0.21858958     0.09860
C644        C  0.72284833  0.44015238  0.20276194    -0.07260
C645        C  0.73761377  0.46755818  0.21022033    -0.18500
C646        C  0.76408140  0.46876063  0.23414835     0.09890
S647        S  0.71900658  0.37742283  0.20602195    -0.33460
S648        S  0.78187293  0.50493803  0.24127146    -0.33470
H649        H  0.79956225  0.49731681  0.27454976     0.27900
H650        H  0.73799925  0.35986588  0.23065267     0.27890
H651        H  0.77062988  0.39418199  0.25539060     0.18490
H652        H  0.72819030  0.48810669  0.19794270     0.18490
C653        C  0.96529341  0.44758874  0.30936497    -0.07340
C654        C  0.98374779  0.46514639  0.33445652    -0.18470
C655        C  0.01578807  0.46163898  0.33491277     0.09860
C656        C  0.02981494  0.43916256  0.31101004    -0.07260
C657        C  0.01167285  0.42245279  0.28459536    -0.18500
C658        C  0.97962573  0.42665467  0.28319815     0.09890
S659        S  0.03755771  0.98668363  0.36638405    -0.33460
S660        S  0.95810591  0.40269639  0.25033682    -0.33470
H661        H  0.94493512  0.42685445  0.22946606     0.27900
H662        H  0.06421040  0.48711989  0.34201137     0.27890
H663        H  0.97307303  0.48173347  0.35397043     0.18490
H664        H  0.02234606  0.40522377  0.26610244     0.18490
C665        C  0.77186623  0.19604842  0.25161227    -0.07340
C666        C  0.76338229  0.22164327  0.22985162    -0.18470
C667        C  0.73659772  0.22183795  0.20649230     0.09860
C668        C  0.71830431  0.19570280  0.20448166    -0.07260
C669        C  0.72676562  0.17029522  0.22633715    -0.18500
C670        C  0.75318004  0.17016983  0.24974629     0.09890
S671        S  0.72665653  0.25608178  0.18085312    -0.33460
S672        S  0.76251599  0.13578055  0.27509081    -0.33470
H673        H  0.76368360  0.14961856  0.31281586     0.27900
H674        H  0.69459574  0.25130425  0.18024535     0.27890
H675        H  0.77742591  0.24161422  0.23143030     0.18490
H676        H  0.71277561  0.15019322  0.22483533     0.18490
C677        C  0.87898750  0.28787862  0.27842088    -0.07340
C678        C  0.90016981  0.30645244  0.29823805    -0.18470
C679        C  0.89700892  0.33768922  0.29868125     0.09860
C680        C  0.87226054  0.35109320  0.27791974    -0.07260
C681        C  0.85262147  0.33291500  0.25531394    -0.18500
C682        C  0.85614655  0.30161150  0.25450796     0.09890
S683        S  0.92393127  0.35796315  0.32971831    -0.33460
S684        S  0.82950485  0.28076080  0.22444439    -0.33470
H685        H  0.85283034  0.26344292  0.20589215     0.27900
H686        H  0.90883640  0.38566812  0.33268268     0.27890
H687        H  0.91831503  0.29646277  0.31595982     0.18490
H688        H  0.83375135  0.34315113  0.23915169     0.18490
C689        C  0.85433038  0.10053417  0.28391658    -0.07340
C690        C  0.83566403  0.08331879  0.30947998    -0.18470
C691        C  0.83978067  0.05252995  0.31289749     0.09860
C692        C  0.86368531  0.03825946  0.29158292    -0.07260
C693        C  0.88091761  0.05456741  0.26345700    -0.18500
C694        C  0.87583536  0.08555475  0.25859090     0.09890
S695        S  0.81417730  0.03164141  0.34471673    -0.33460
S696        S  0.89606658  0.10409325  0.21853783    -0.33470
H697        H  0.87165622  0.12384219  0.20962291     0.27900
H698        H  0.79231273  0.05461755  0.35126283     0.27890
H699        H  0.81841316  0.09406373  0.32829986     0.18490
H700        H  0.89831470  0.04321210  0.24544767     0.18490
C701        C  0.96413426  0.19141723  0.30915953    -0.07340
C702        C  0.98175847  0.21248390  0.33023280    -0.18470
C703        C  0.01399796  0.21106559  0.33031628     0.09860
C704        C  0.02927948  0.18775266  0.30924885    -0.07260
C705        C  0.01180647  0.16732643  0.28687719    -0.18500
C706        C  0.97942898  0.16864023  0.28714339     0.09890
S707        S  0.03421183  0.23981482  0.35773182    -0.33460
S708        S  0.95907889  0.13920596  0.26180219    -0.33470
H709        H  0.93497964  0.13717818  0.29011418     0.27900
H710        H  0.06154843  0.23879039  0.33482437     0.27890
H711        H  0.97024256  0.23028647  0.34684688     0.18490
H712        H  0.02334780  0.14911704  0.27113297     0.18490
C713        C  0.21842606  0.32671516  0.70588772    -0.07340
C714        C  0.21595043  0.32051531  0.74701745    -0.18470
C715        C  0.24187716  0.31847129  0.77124696     0.09860
C716        C  0.27150650  0.32367604  0.75464888    -0.07260
C717        C  0.27386241  0.33181771  0.71412644    -0.18500
C718        C  0.24785913  0.33362246  0.68974352     0.09890
S719        S  0.23530567  0.30647836  0.82199471    -0.33460
S720        S  0.25424960  0.34468140  0.63856568    -0.33470
H721        H  0.22851405  0.36394958  0.63738364     0.27900
H722        H  0.25559868  0.28181600  0.81853800     0.27890
H723        H  0.19370088  0.31531651  0.76029609     0.18490
H724        H  0.29629928  0.33655099  0.70104036     0.18490
C725        C  0.17672131  0.35853388  0.51712151    -0.07340
C726        C  0.17501602  0.33905876  0.48411263    -0.18470
C727        C  0.17541777  0.35005899  0.44502733     0.09860
C728        C  0.17829279  0.38124107  0.43868700    -0.07260
C729        C  0.18521222  0.39990953  0.47146072    -0.18500
C730        C  0.18360356  0.38902005  0.51067267     0.09890
S731        S  0.16969076  0.32358121  0.40485460    -0.33460
S732        S  0.18789978  0.41540461  0.55118310    -0.33470
H733        H  0.19723598  0.39400280  0.57949433     0.27900
H734        H  0.18382737  0.34128565  0.37514642     0.27890
H735        H  0.17035116  0.31550602  0.48874392     0.18490
H736        H  0.18801419  0.42386268  0.46706934     0.18490
C737        C  0.12260031  0.23584769  0.44344728    -0.07340
C738        C  0.09383805  0.24139307  0.46163446    -0.18470
C739        C  0.09177747  0.25693121  0.49806546     0.09860
C740        C  0.11928371  0.26493053  0.51775860    -0.07260
C741        C  0.14784894  0.25850143  0.49991396    -0.18500
C742        C  0.14987522  0.24546471  0.46226217     0.09890
S743        S  0.05364082  0.26510604  0.51735382    -0.33460
S744        S  0.18766396  0.24109125  0.43936677    -0.33470
H745        H  0.20438210  0.25778600  0.46753106     0.27900
H746        H  0.06228179  0.27664795  0.55444874     0.27890
H747        H  0.07294166  0.23409155  0.44699544     0.18490
H748        H  0.16882330  0.26497884  0.51502235     0.18490
C749        C  0.21926857  0.07054994  0.70109162    -0.07340
C750        C  0.24202443  0.04873365  0.69351727    -0.18470
C751        C  0.26835022  0.04662592  0.71731139     0.09860
C752        C  0.27254299  0.06705279  0.74924569    -0.07260
C753        C  0.24957012  0.08857822  0.75720141    -0.18500
C754        C  0.22323603  0.09071061  0.73336538     0.09890
S755        S  0.29393303  0.51525641  0.70862828    -0.33460
S756        S  0.19599609  0.12009022  0.74511477    -0.33470
H757        H  0.18683753  0.12365840  0.70550290     0.27900
H758        H  0.31787550  0.03356905  0.69400717     0.27890
H759        H  0.23868475  0.03244312  0.66983725     0.18490
H760        H  0.25226309  0.10404059  0.78193107     0.18490
C761        C  0.17812619  0.11722621  0.51774186    -0.07340
C762        C  0.18378282  0.09846302  0.48448333    -0.18470
C763        C  0.18348141  0.10987449  0.44542725     0.09860
C764        C  0.17815775  0.14077869  0.43935174    -0.07260
C765        C  0.17667882  0.15991457  0.47275730    -0.18500
C766        C  0.17668988  0.14860436  0.51171248     0.09890
S767        S  0.18756365  0.08367318  0.40458421    -0.33460
S768        S  0.17235421  0.17523506  0.55218313    -0.33470
H769        H  0.18677047  0.15710816  0.58096796     0.27900
H770        H  0.19780040  0.10490630  0.37640798     0.27890
H771        H  0.18525509  0.07435044  0.48848024     0.18490
H772        H  0.17251648  0.18362028  0.46863743     0.18490
C773        C  0.11252665  0.48115384  0.44715204    -0.07340
C774        C  0.11271473  0.01237901  0.44107627    -0.18470
C775        C  0.11047344  0.03247652  0.47309826     0.09860
C776        C  0.10969085  0.02123767  0.51253808    -0.07260
C777        C  0.10624388  0.49020769  0.51839315    -0.18500
C778        C  0.10717031  0.47007576  0.48624972     0.09890
S779        S  0.11118158  0.07194284  0.46156148    -0.33460
S780        S  0.10326145  0.43079378  0.49809001    -0.33470
H781        H  0.12862533  0.42168431  0.47495374     0.27900
H782        H  0.08476521  0.07843619  0.48483990     0.27890
H783        H  0.11548098  0.02124550  0.41112757     0.18490
H784        H  0.10457339  0.48141615  0.54850248     0.18490
C785        C  0.12681141  0.47843895  0.66937171    -0.07340
C786        C  0.15157234  0.45940439  0.67865584    -0.18470
C787        C  0.14854552  0.42819859  0.67692707     0.09860
C788        C  0.11980916  0.41548825  0.66667086    -0.07260
C789        C  0.09467412  0.43452302  0.65902324    -0.18500
C790        C  0.09793181  0.46577314  0.65977158     0.09890
S791        S  0.18300546  0.40612156  0.68420539    -0.33460
S792        S  0.06520067  0.48799357  0.64466536    -0.33470
H793        H  0.08222561  0.00726947  0.61962568     0.27900
H794        H  0.17777938  0.38705917  0.65139620     0.27890
H795        H  0.17394937  0.46895856  0.68525118     0.18490
H796        H  0.07268316  0.42496069  0.65060793     0.18490
C797        C  0.12168689  0.16604963  0.67405727    -0.07340
C798        C  0.15178247  0.17726383  0.67545864    -0.18470
C799        C  0.15735208  0.20780187  0.68103396     0.09860
C800        C  0.13219481  0.22816306  0.68305076    -0.07260
C801        C  0.10203092  0.21665569  0.68454161    -0.18500
C802        C  0.09653240  0.18583561  0.67990270     0.09890
S803        S  0.19720267  0.21921807  0.68426691    -0.33460
S804        S  0.05700725  0.17336963  0.67981276    -0.33470
H805        H  0.06345108  0.14406476  0.69274025     0.27900
H806        H  0.19126781  0.24378961  0.70981645     0.27890
H807        H  0.17111699  0.16248556  0.67006545     0.18490
H808        H  0.08257834  0.23178851  0.68706248     0.18490
C809        C  0.77207620  0.30581679  0.70621450    -0.07340
C810        C  0.76199842  0.27889688  0.72369803    -0.18470
C811        C  0.73574044  0.27831966  0.74872892     0.09860
C812        C  0.71970155  0.30542338  0.75679984    -0.07260
C813        C  0.72998103  0.33219976  0.73947375    -0.18500
C814        C  0.75572346  0.33265347  0.71420263     0.09890
S815        S  0.72358785  0.24229245  0.76790138    -0.33460
S816        S  0.76681513  0.36829266  0.69337865    -0.33950
H817        H  0.76948812  0.35704374  0.65422890     0.27900
H818        H  0.70211324  0.25239963  0.79659210     0.27890
H819        H  0.77467560  0.25828540  0.71787558     0.18490
H820        H  0.71742515  0.35293557  0.74512963     0.18490
C821        C  0.82724130  0.26816535  0.51246085    -0.07340
C822        C  0.80283706  0.24831007  0.50435768    -0.18470
C823        C  0.79875024  0.23663935  0.46525836     0.09860
C824        C  0.81784288  0.24700415  0.43338794    -0.07260
C825        C  0.83782255  0.27083814  0.44127693    -0.18500
C826        C  0.84566921  0.27797717  0.47997469     0.09890
S827        S  0.76980025  0.20830802  0.45823959    -0.33460
S828        S  0.88376378  0.29304673  0.48439999    -0.33470
H829        H  0.89437396  0.26848502  0.50684311     0.27900
H830        H  0.76337311  0.21658072  0.41861138     0.27890
H831        H  0.78836383  0.24043292  0.52868430     0.18490
H832        H  0.85226550  0.28003765  0.41772191     0.18490
C833        C  0.87383574  0.36164407  0.51680074    -0.07340
C834        C  0.90212163  0.37246573  0.50195562    -0.18470
C835        C  0.90389393  0.38617507  0.46418147     0.09860
C836        C  0.87718646  0.38761037  0.44036917    -0.07260
C837        C  0.84951520  0.37561147  0.45471653    -0.18500
C838        C  0.84721433  0.36353389  0.49276286     0.09890
S839        S  0.94058972  0.40090461  0.44787078    -0.33460
S840        S  0.80966406  0.35093574  0.50955823    -0.33470
H841        H  0.79505155  0.35105226  0.47220139     0.27900
H842        H  0.93471760  0.39922147  0.40668830     0.27890
H843        H  0.92268314  0.37050433  0.51994640     0.18490
H844        H  0.82885377  0.37765603  0.43691855     0.18490
C845        C  0.96456582  0.30806667  0.66291017    -0.07340
C846        C  0.98290050  0.28457162  0.64790766    -0.18470
C847        C  0.01492458  0.28727337  0.64517027     0.09860
C848        C  0.02886149  0.31451930  0.65677975    -0.07260
C849        C  0.01072536  0.33733640  0.67412679    -0.18500
C850        C  0.97867625  0.33430303  0.67756951     0.09890
S851        S  0.03611302  0.25503962  0.62660205    -0.33460
S852        S  0.95699943  0.36538419  0.69813257    -0.33470
H853        H  0.93368321  0.34770350  0.71537718     0.27900
H854        H  0.06602278  0.26475814  0.63546334     0.27890
H855        H  0.97201159  0.26431314  0.63689012     0.18490
H856        H  0.02145774  0.35810901  0.68356939     0.18490
C857        C  0.77124239  0.05404265  0.70004071    -0.07340
C858        C  0.76379959  0.02744157  0.72023899    -0.18470
C859        C  0.73777525  0.02584032  0.74541519     0.09860
C860        C  0.71863075  0.05141766  0.74980576    -0.07260
C861        C  0.72624737  0.07797527  0.72966679    -0.18500
C862        C  0.75232238  0.07959079  0.70510485     0.09890
S863        S  0.73061651  0.49068312  0.77060385    -0.33460
S864        S  0.76098196  0.11517860  0.68225917    -0.33470
H865        H  0.76574840  0.10281612  0.64403524     0.27900
H866        H  0.69961165  0.99569721  0.78122285     0.27890
H867        H  0.77830427  0.00784392  0.71631627     0.18490
H868        H  0.71186389  0.09780032  0.73347367     0.18490
C869        C  0.81518952  0.99690891  0.52341950    -0.07340
C870        C  0.79670826  0.01024837  0.49393277    -0.18470
C871        C  0.79488578  0.49775431  0.45547039     0.09860
C872        C  0.81264213  0.47209778  0.44591715    -0.07260
C873        C  0.82660961  0.45621795  0.47701052    -0.18500
C874        C  0.82751022  0.96787995  0.51586883     0.09890
S875        S  0.76876923  0.51475061  0.42077123    -0.33460
S876        S  0.84560529  0.94589201  0.55470469    -0.33470
H877        H  0.85857682  0.92375857  0.52967343     0.27900
H878        H  0.76834972  0.49035920  0.39395965     0.27890
H879        H  0.78543424  0.03159319  0.49980768     0.18490
H880        H  0.83886953  0.43566607  0.47018303     0.18490
C881        C  0.87570352  0.10297919  0.50592918    -0.07340
C882        C  0.87872029  0.13404441  0.51190013    -0.18470
C883        C  0.87812036  0.15408553  0.47985875     0.09860
C884        C  0.87508120  0.14284737  0.44050617    -0.07260
C885        C  0.87514818  0.11155580  0.43440304    -0.18500
C886        C  0.87510052  0.09156877  0.46655118     0.09890
S887        S  0.87802676  0.19353188  0.49191401    -0.33460
S888        S  0.87114386  0.05217568  0.45526801    -0.33470
H889        H  0.84720803  0.04784908  0.48313167     0.27900
H890        H  0.85060401  0.19891175  0.47110987     0.27890
H891        H  0.87960755  0.14291568  0.54204548     0.18490
H892        H  0.87330784  0.10257514  0.40439394     0.18490
C893        C  0.87473880  0.46243094  0.67265511    -0.07340
C894        C  0.89336742  0.44278881  0.64994235    -0.18470
C895        C  0.88893397  0.41181860  0.65020763     0.09860
C896        C  0.86536474  0.39934808  0.67454079    -0.07260
C897        C  0.84789072  0.41849771  0.69932682    -0.18500
C898        C  0.85281994  0.44972599  0.69943660     0.09890
S899        S  0.91280814  0.39084709  0.61540373    -0.33460
S900        S  0.83014142  0.47171738  0.73402851    -0.33470
H901        H  0.85552269  0.98848845  0.74740496     0.27900
H902        H  0.90418672  0.36202377  0.62650643     0.27890
H903        H  0.91079210  0.45169304  0.62981726     0.18490
H904        H  0.83012021  0.40908174  0.71849743     0.18490
C905        C  0.85577183  0.15068167  0.65854831    -0.07340
C906        C  0.87386719  0.16274702  0.68947640    -0.18470
C907        C  0.88039035  0.19365857  0.69149573     0.09860
C908        C  0.86891817  0.21292249  0.66170688    -0.07260
C909        C  0.85062957  0.20113943  0.63135294    -0.18500
C910        C  0.84350610  0.17067867  0.62965802     0.09890
S911        S  0.90389767  0.20687152  0.73206142    -0.33460
S912        S  0.81981170  0.15925939  0.58842534    -0.33470
H913        H  0.79538867  0.15024639  0.61359325     0.27900
H914        H  0.91540438  0.23264093  0.71297096     0.27890
H915        H  0.88334743  0.14797629  0.71194538     0.18490
H916        H  0.84160343  0.21598083  0.60859460     0.18490
C917        C  0.96342586  0.05723734  0.64426905    -0.07340
C918        C  0.97620445  0.07299548  0.67654622    -0.18470
C919        C  0.00827385  0.07741944  0.67916506     0.09860
C920        C  0.02792724  0.06702346  0.64796342    -0.07260
C921        C  0.01509347  0.04992838  0.61707908    -0.18500
C922        C  0.98358958  0.04417571  0.61553997     0.09890
S923        S  0.02229907  0.09764014  0.72179057    -0.33460
S924        S  0.97105148  0.01882341  0.57690065    -0.33470
H925        H  0.95096222  0.00297089  0.60242825     0.27900
H926        H  0.04284023  0.07459987  0.73274377     0.27890
H927        H  0.96113522  0.08240996  0.69939956     0.18490
H928        H  0.02989176  0.04056351  0.59385869     0.18490
O929        O  0.84919397  0.59420754  0.56598865    -0.83010
C930        C  0.87613783  0.49500717  0.66204516     0.96340
O931        O  0.89080832  0.50218387  0.63050831    -0.72130
O932        O  0.85155627  0.50784250  0.57337028    -0.75720
Al933      Al  0.88332672  0.53267313  0.59134259     1.48980
C934        C  0.82732594  0.51603380  0.55625156     0.91600
O935        O  0.79827146  0.55235648  0.63848775    -0.81940
O936        O  0.87203921  0.59987171  0.66996290    -0.75500
Al937      Al  0.82572545  0.57219197  0.60296799     1.90120
O938        O  0.82483053  0.56177145  0.69255587    -0.74570
O939        O  0.91168225  0.55335250  0.66989983    -0.74420
O940        O  0.86216036  0.51500376  0.68225040    -0.80080
O941        O  0.91841162  0.55484412  0.60530257    -0.78280
O942        O  0.85863634  0.55400856  0.62279044    -1.14420
O943        O  0.88065034  0.55863257  0.54545869    -0.73610
C944        C  0.86857859  0.58427786  0.54106475     0.97110
C945        C  0.79962202  0.55549522  0.67584403     0.93500
Al946      Al  0.86701995  0.55730647  0.67468756     1.55560
O947        O  0.81613978  0.54182299  0.56338785    -0.78230
C948        C  0.92945901  0.55535484  0.63982086     0.97670
C949        C  0.85205382  0.61748213  0.65527211     0.92550
O950        O  0.82900395  0.60693612  0.63701255    -0.83550
O951        O  0.85167270  0.85273678  0.57968458    -0.83010
C952        C  0.87526082  0.74528121  0.65959901     0.96340
O953        O  0.89212634  0.75461416  0.63093430    -0.72130
O954        O  0.85832862  0.76822533  0.56973597    -0.75720
Al955      Al  0.88825315  0.79001087  0.59822174     1.48980
C956        C  0.83458875  0.77860051  0.55354641     0.91600
O957        O  0.80079131  0.80507724  0.64548044    -0.81940
O958        O  0.87528404  0.84760190  0.68607985    -0.75500
Al959      Al  0.82908695  0.82757782  0.61364413     1.90120
O960        O  0.82609899  0.81064986  0.70109621    -0.74570
O961        O  0.91241648  0.79992659  0.68256007    -0.74420
O962        O  0.86172947  0.76330940  0.68346065    -0.80080
O963        O  0.92262280  0.80916470  0.62004108    -0.78280
O964        O  0.86176626  0.80757514  0.63144910    -1.14420
O965        O  0.88801298  0.82172210  0.55963170    -0.73610
C966        C  0.87211051  0.84524038  0.55483755     0.97110
C967        C  0.80110647  0.80640266  0.68304296     0.93500
Al968      Al  0.86828689  0.80551409  0.68415926     1.55560
O969        O  0.82047423  0.80084065  0.56892432    -0.78230
C970        C  0.93142369  0.80635502  0.65529874     0.97670
C971        C  0.85725211  0.86723690  0.67181609     0.92550
O972        O  0.83322354  0.85965057  0.65272694    -0.83550
O973        O  0.13547982  0.52860386  0.57334564    -0.83010
C974        C  0.11788096  0.63443484  0.66240631     0.96340
O975        O  0.10406869  0.62829182  0.63028888    -0.72130
O976        O  0.14401352  0.61588886  0.57328299    -0.75720
Al977      Al  0.10923896  0.59528421  0.59355147     1.48980
C978        C  0.16579319  0.60310291  0.55467314     0.91600
O979        O  0.19215702  0.56903143  0.63970188    -0.81940
O980        O  0.11470973  0.53038030  0.67727690    -0.75500
Al981      Al  0.16218881  0.55015727  0.60709194     1.90120
O982        O  0.16484747  0.56676226  0.69536276    -0.74570
O983        O  0.07844445  0.57781343  0.67375143    -0.74420
O984        O  0.12980010  0.61405898  0.68340345    -0.80080
O985        O  0.07215955  0.57710101  0.60916338    -0.78280
O986        O  0.13149494  0.57281918  0.62631583    -1.14420
O987        O  0.10972467  0.56706318  0.54987358    -0.73610
C988        C  0.11812511  0.53990791  0.54731881     0.97110
C989        C  0.19059993  0.56936189  0.67744754     0.93500
Al990      Al  0.12269755  0.57235087  0.67839547     1.55560
O991        O  0.17376058  0.57668448  0.56393598    -0.78230
C992        C  0.06118398  0.57453084  0.64386682     0.97670
C993        C  0.13314464  0.01065188  0.66400819     0.92550
O994        O  0.15700988  0.51806426  0.64449265    -0.83550
O995        O  0.13775798  0.77333370  0.58211920    -0.83010
C996        C  0.11638990  0.88300613  0.65944996     0.96340
O997        O  0.10198625  0.87436889  0.62876045    -0.72130
O998        O  0.14219957  0.86048324  0.57225899    -0.75720
Al999      Al  0.10811844  0.83964515  0.59536921     1.48980
C1000       C  0.16462477  0.84719061  0.55552648     0.91600
O1001       O  0.19190881  0.82049790  0.64376454    -0.81940
O1002       O  0.11655857  0.77986168  0.68543961    -0.75500
Al1003     Al  0.16318216  0.79799923  0.61344314     1.90120
O1004       O  0.16472158  0.81903873  0.69916316    -0.74570
O1005       O  0.07912445  0.82640651  0.67768355    -0.74420
O1006       O  0.12863605  0.86431661  0.68281232    -0.80080
O1007       O  0.07150433  0.82085378  0.61352471    -0.78280
O1008       O  0.13141552  0.82014324  0.63016495    -1.14420
O1009       O  0.11004431  0.80917648  0.55479658    -0.73610
C1010       C  0.12086330  0.78278345  0.55436381     0.97110
C1011       C  0.19032679  0.82260445  0.68136468     0.93500
Al1012     Al  0.12290615  0.82228135  0.68221423     1.55560
O1013       O  0.17357177  0.82193125  0.56788103    -0.78230
C1014       C  0.06154598  0.82067661  0.64894419     0.97670
C1015       C  0.13646833  0.76052595  0.67474268     0.92550
O1016       O  0.15953784  0.76823569  0.65393093    -0.83550
O1017       O  0.85074772  0.65210422  0.37914467    -0.83010
C1018       C  0.87842332  0.75554915  0.28971959     0.96340
O1019       O  0.89051460  0.74818450  0.32251508    -0.72130
O1020       O  0.84700458  0.73974621  0.37436998    -0.75720
Al1021     Al  0.88165260  0.71669317  0.35944228     1.48980
C1022       C  0.82586547  0.72955916  0.39638010     0.91600
O1023       O  0.79897170  0.69779240  0.31252056    -0.81940
O1024       O  0.87317518  0.65095858  0.27678099    -0.75500
Al1025     Al  0.82634018  0.67595528  0.34551081     1.90120
O1026       O  0.82621456  0.69106832  0.25714954    -0.74570
O1027       O  0.91337482  0.69564025  0.28173268    -0.74420
O1028       O  0.86524017  0.73598186  0.26858310    -0.80080
O1029       O  0.91852063  0.69640982  0.34691181    -0.78280
O1030       O  0.85922122  0.69530212  0.32652133    -1.14420
O1031       O  0.87790367  0.68909642  0.40401842    -0.73610
C1032       C  0.86806839  0.66233525  0.40595801     0.97110
C1033       C  0.80057524  0.69590371  0.27485248     0.93500
Al1034     Al  0.86880448  0.69355278  0.27485684     1.55560
O1035       O  0.81639382  0.70320278  0.38993662    -0.78230
C1036       C  0.93017268  0.69392427  0.31250165     0.97670
C1037       C  0.85204844  0.63357107  0.28861242     0.92550
O1038       O  0.82903018  0.64396955  0.30765593    -0.83550
O1039       O  0.85866723  0.89488722  0.37561213    -0.83010
C1040       C  0.87051147  0.00662758  0.29974836     0.96340
O1041       O  0.88185296  0.99990334  0.33329215    -0.72130
O1042       O  0.84368596  0.98034650  0.38867820    -0.75720
Al1043     Al  0.88059932  0.96438086  0.36537419     1.48980
C1044       C  0.82332949  0.96431416  0.40502526     0.91600
O1045       O  0.80120657  0.93774373  0.31317445    -0.81940
O1046       O  0.88118987  0.90364923  0.27432543    -0.75500
Al1047     Al  0.83127595  0.91731330  0.34398539     1.90120
O1048       O  0.82962003  0.93936163  0.25820736    -0.74570
O1049       O  0.91432157  0.95176898  0.28391113    -0.74420
O1050       O  0.86266157  0.98677793  0.27499550    -0.80080
O1051       O  0.92011390  0.95154640  0.34861694    -0.78280
O1052       O  0.86101338  0.94261871  0.32894019    -1.14420
O1053       O  0.88246550  0.93283046  0.40431763    -0.73610
C1054       C  0.87430243  0.90556794  0.40394474     0.97110
C1055       C  0.80357687  0.94061101  0.27568131     0.93500
Al1056     Al  0.87108911  0.94520871  0.27704961     1.55560
O1057       O  0.81728774  0.93883613  0.39077880    -0.78230
C1058       C  0.93145449  0.95022467  0.31398911     0.97670
C1059       C  0.86347243  0.88261740  0.28455821     0.92550
O1060       O  0.83839731  0.88819099  0.30256068    -0.83550
O1061       O  0.14022961  0.72808730  0.37784224    -0.83010
C1062       C  0.11728751  0.61993403  0.29849666     0.96340
O1063       O  0.10286016  0.62821399  0.32972201    -0.72130
O1064       O  0.14440093  0.64030337  0.38426494    -0.75720
Al1065     Al  0.11019199  0.66222377  0.36407558     1.48980
C1066       C  0.16674466  0.65301368  0.40112311     0.91600
O1067       O  0.19318129  0.68169510  0.31276779    -0.81940
O1068       O  0.11730286  0.72314302  0.27527417    -0.75500
Al1069     Al  0.16495382  0.70371995  0.34467862     1.90120
O1070       O  0.16589460  0.68411730  0.25786067    -0.74570
O1071       O  0.07966636  0.67671590  0.28403311    -0.74420
O1072       O  0.12984929  0.63871832  0.27542069    -0.80080
O1073       O  0.07361175  0.68189402  0.34871407    -0.78280
O1074       O  0.13301676  0.68210327  0.32872244    -1.14420
O1075       O  0.11328307  0.69195046  0.40579654    -0.73610
C1076       C  0.12449617  0.71814853  0.40661948     0.97110
C1077       C  0.19153230  0.68082178  0.27520635     0.93500
Al1078     Al  0.12384842  0.68071458  0.27706391     1.55560
O1079       O  0.17581711  0.67846947  0.38930499    -0.78230
C1080       C  0.06261958  0.68214730  0.31407193     0.97670
C1081       C  0.13708068  0.74246514  0.28552801     0.92550
O1082       O  0.16058788  0.73460789  0.30512518    -0.83550
O1083       O  0.14054045  0.97148770  0.38788080    -0.83010
C1084       C  0.11754818  0.86914219  0.29524854     0.96340
O1085       O  0.10369663  0.87524026  0.32784503    -0.72130
O1086       O  0.14250392  0.88497444  0.38597310    -0.75720
Al1087     Al  0.10909804  0.90758370  0.36553529     1.48980
C1088       C  0.16587780  0.89591474  0.40258962     0.91600
O1089       O  0.19323192  0.92893962  0.31621469    -0.81940
O1090       O  0.11757068  0.97407503  0.28466468    -0.75500
Al1091     Al  0.16498909  0.94920226  0.35154566     1.90120
O1092       O  0.16542659  0.93643030  0.26274037    -0.74570
O1093       O  0.07985148  0.92721215  0.28602134    -0.74420
O1094       O  0.12980829  0.88955271  0.27431715    -0.80080
O1095       O  0.07272554  0.92758185  0.35060153    -0.78280
O1096       O  0.13267782  0.92925300  0.33298677    -1.14420
O1097       O  0.10997316  0.93563664  0.40923601    -0.73610
C1098       C  0.12110017  0.96169892  0.41287117     0.97110
C1099       C  0.19116151  0.93120109  0.27868604     0.93500
Al1100     Al  0.12384542  0.93153872  0.28112903     1.55560
O1101       O  0.17575078  0.92137421  0.39244890    -0.78230
C1102       C  0.06249869  0.93103479  0.31599609     0.97670
C1103       C  0.13759142  0.49227739  0.29760809     0.92550
O1104       O  0.16066304  0.98251338  0.31638505    -0.83550
O1105       O  0.64222282  0.59463167  0.88225743    -0.83010
C1106       C  0.61297511  0.49452315  0.78853285     0.96340
O1107       O  0.59922404  0.50199327  0.82060059    -0.72130
O1108       O  0.64254018  0.50716014  0.87251801    -0.75720
Al1109     Al  0.60881455  0.53202094  0.85936564     1.48980
C1110       C  0.66286822  0.51650604  0.89592593     0.91600
O1111       O  0.69245911  0.54899621  0.81216632    -0.81940
O1112       O  0.61950717  0.59950992  0.78174610    -0.75500
Al1113     Al  0.66588152  0.57105565  0.84702092     1.90120
O1114       O  0.66536595  0.55948605  0.75845662    -0.74570
O1115       O  0.57840213  0.55472158  0.78325670    -0.74420
O1116       O  0.62670332  0.51428116  0.76800661    -0.80080
O1117       O  0.57289361  0.55440255  0.84835585    -0.78280
O1118       O  0.63236551  0.55342652  0.82764260    -1.14420
O1119       O  0.61327940  0.55814101  0.90534363    -0.73610
C1120       C  0.62395319  0.58449867  0.90840440     0.97110
C1121       C  0.69063416  0.55223972  0.77472746     0.93500
Al1122     Al  0.62315398  0.55679234  0.77646018     1.55560
O1123       O  0.67428797  0.54223204  0.88996750    -0.78230
C1124       C  0.56139424  0.55717222  0.81416514     0.97670
C1125       C  0.64069509  0.61634027  0.79496458     0.92550
O1126       O  0.66418811  0.60472759  0.81109325    -0.83550
O1127       O  0.63358070  0.85539511  0.87667495    -0.83010
C1128       C  0.61868729  0.74435999  0.79924283     0.96340
O1129       O  0.60217748  0.75306197  0.82863579    -0.72130
O1130       O  0.63583054  0.76907620  0.88913966    -0.75720
Al1131     Al  0.60412360  0.78896472  0.86094408     1.48980
C1132       C  0.65748528  0.78197580  0.90692081     0.91600
O1133       O  0.69033739  0.80811625  0.81693621    -0.81940
O1134       O  0.61496817  0.84637945  0.77127944    -0.75500
Al1135     Al  0.65986583  0.83046598  0.84604306     1.90120
O1136       O  0.66585681  0.81032855  0.75992613    -0.74570
O1137       O  0.57961652  0.79783887  0.77606159    -0.74420
O1138       O  0.63172186  0.76284291  0.77599813    -0.80080
O1139       O  0.56903943  0.80618864  0.83885944    -0.78280
O1140       O  0.62929700  0.80784404  0.82768470    -1.14420
O1141       O  0.60207159  0.82096384  0.89942693    -0.73610
C1142       C  0.61439116  0.84653949  0.90242375     0.97110
C1143       C  0.69049130  0.80701015  0.77924342     0.93500
Al1144     Al  0.62357851  0.80465934  0.77493269     1.55560
O1145       O  0.66866779  0.80613876  0.89312347    -0.78230
C1146       C  0.56025342  0.80253753  0.80367294     0.97670
C1147       C  0.63213307  0.86700989  0.78444158     0.92550
O1148       O  0.65595801  0.86077276  0.80471692    -0.83550
O1149       O  0.34734871  0.52332501  0.88273485    -0.83010
C1150       C  0.37076228  0.62828748  0.79689730     0.96340
O1151       O  0.38307491  0.62241588  0.83020269    -0.72130
O1152       O  0.34219135  0.61030486  0.88531351    -0.75720
Al1153     Al  0.37748237  0.58924048  0.86621040     1.48980
C1154       C  0.31972559  0.59767602  0.90216902     0.91600
O1155       O  0.29683447  0.56788237  0.81277951    -0.81940
O1156       O  0.37459210  0.52316010  0.78331944    -0.75500
Al1157     Al  0.32371614  0.54653773  0.84741939     1.90120
O1158       O  0.32634121  0.56066098  0.75987264    -0.74570
O1159       O  0.41148321  0.57123778  0.78779891    -0.74420
O1160       O  0.36116025  0.60771863  0.77412057    -0.80080
O1161       O  0.41604180  0.57184078  0.85263197    -0.78280
O1162       O  0.35644054  0.56740301  0.83151563    -1.14420
O1163       O  0.37506427  0.55975467  0.90873065    -0.73610
C1164       C  0.36383533  0.53347424  0.91048322     0.97110
C1165       C  0.29994318  0.56554993  0.77527539     0.93500
Al1166     Al  0.36764187  0.56583919  0.78023579     1.55560
O1167       O  0.31113587  0.57215391  0.89065887    -0.78230
C1168       C  0.42825113  0.57086975  0.81844470     0.97670
C1169       C  0.35376641  0.00488126  0.79424013     0.92550
O1170       O  0.32906937  0.51480065  0.80955566    -0.83550
O1171       O  0.35365117  0.77093102  0.87632633    -0.83010
C1172       C  0.37634952  0.87738705  0.79217002     0.96340
O1173       O  0.39181622  0.86920677  0.82212048    -0.72130
O1174       O  0.35228198  0.85905132  0.87934945    -0.75720
Al1175     Al  0.38514263  0.83598247  0.85763223     1.48980
C1176       C  0.33176613  0.84738206  0.90094729     0.91600
O1177       O  0.30030885  0.81931650  0.81504853    -0.81940
O1178       O  0.37306896  0.77421551  0.77227837    -0.75500
Al1179     Al  0.32854205  0.79603787  0.84507815     1.90120
O1180       O  0.32514090  0.81365029  0.75811370    -0.74570
O1181       O  0.41213383  0.81890902  0.77555640    -0.74420
O1182       O  0.36288965  0.85854126  0.77025238    -0.80080
O1183       O  0.42007367  0.81556886  0.83977034    -0.78280
O1184       O  0.36060499  0.81614886  0.82534100    -1.14420
O1185       O  0.38377627  0.80621601  0.89962607    -0.73610
C1186       C  0.37308510  0.77978054  0.90145466     0.97110
C1187       C  0.30038535  0.81905423  0.77730640     0.93500
Al1188     Al  0.36776766  0.81636709  0.77291813     1.55560
O1189       O  0.32069419  0.82212109  0.89130934    -0.78230
C1190       C  0.42967168  0.81308957  0.80446802     0.97670
C1191       C  0.35364145  0.75545490  0.78504942     0.92550
O1192       O  0.33035746  0.76437520  0.80524447    -0.83550
O1193       O  0.64267659  0.64956710  0.07202249    -0.83010
C1194       C  0.61305570  0.75224587  0.16208097     0.96340
O1195       O  0.59888594  0.74312950  0.13176331    -0.72130
O1196       O  0.64323283  0.73698234  0.08067716    -0.75720
Al1197     Al  0.60973413  0.71260678  0.09435195     1.48980
C1198       C  0.66576075  0.72803511  0.05979779     0.91600
O1199       O  0.69308484  0.69410826  0.14212213    -0.81940
O1200       O  0.61926630  0.64770495  0.17655357    -0.75500
Al1201     Al  0.66618309  0.67275482  0.10767142     1.90120
O1202       O  0.66506738  0.68756923  0.19655069    -0.74570
O1203       O  0.57871454  0.69258345  0.17143808    -0.74420
O1204       O  0.62703045  0.73338573  0.18378247    -0.80080
O1205       O  0.57412425  0.69012652  0.10628083    -0.78280
O1206       O  0.63293082  0.69164346  0.12679383    -1.14420
O1207       O  0.61512946  0.68687683  0.04883335    -0.73610
C1208       C  0.62547652  0.66046178  0.04558225     0.97110
C1209       C  0.69064865  0.69321085  0.17970644     0.93500
Al1210     Al  0.62326218  0.69037836  0.17835398     1.55560
O1211       O  0.67621030  0.70178046  0.06538633    -0.78230
C1212       C  0.56225505  0.68859754  0.14073063     0.97670
C1213       C  0.63966604  0.62952862  0.16366094     0.92550
O1214       O  0.66256484  0.63922724  0.14371331    -0.83550
O1215       O  0.63747317  0.89342817  0.08326846    -0.83010
C1216       C  0.61864844  0.00138626  0.16687388     0.96340
O1217       O  0.60059682  0.99256303  0.13950979    -0.72130
O1218       O  0.63472100  0.97999480  0.07704443    -0.75720
Al1219     Al  0.60448159  0.95768528  0.10465039     1.48980
C1220       C  0.65589466  0.96834222  0.05626464     0.91600
O1221       O  0.69238481  0.94088023  0.14394172    -0.81940
O1222       O  0.61854562  0.89890142  0.19024277    -0.75500
Al1223     Al  0.66255611  0.91843282  0.11462559     1.90120
O1224       O  0.66879256  0.93514265  0.20157866    -0.74570
O1225       O  0.58163492  0.94688990  0.18923859    -0.74420
O1226       O  0.63346901  0.98277185  0.18795474    -0.80080
O1227       O  0.57060424  0.93770584  0.12698860    -0.78280
O1228       O  0.63112595  0.93903794  0.13543027    -1.14420
O1229       O  0.60422066  0.92709820  0.06359875    -0.73610
C1230       C  0.61835746  0.90256287  0.05805036     0.97110
C1231       C  0.69320762  0.93954595  0.18157114     0.93500
Al1232     Al  0.62606390  0.94078496  0.18832781     1.55560
O1233       O  0.66949781  0.94479064  0.06839777    -0.78230
C1234       C  0.56210423  0.94130431  0.16250839     0.97670
C1235       C  0.63658724  0.87924044  0.17561358     0.92550
O1236       O  0.65989840  0.88669335  0.15443701    -0.83550
O1237       O  0.35434935  0.72141795  0.06836446    -0.83010
C1238       C  0.37050877  0.61843154  0.16197484     0.96340
O1239       O  0.38351703  0.62267178  0.12848366    -0.72130
O1240       O  0.34406811  0.63476688  0.07245671    -0.75720
Al1241     Al  0.37990106  0.65460541  0.09044056     1.48980
C1242       C  0.32250941  0.64779006  0.05448075     0.91600
O1243       O  0.29909594  0.68295550  0.13971556    -0.81940
O1244       O  0.37734092  0.72402059  0.17052222    -0.75500
Al1245     Al  0.32825594  0.70128748  0.10459275     1.90120
O1246       O  0.32738810  0.68887907  0.19325996    -0.74570
O1247       O  0.41256772  0.67466041  0.16809342    -0.74420
O1248       O  0.36066906  0.64016120  0.18288150    -0.80080
O1249       O  0.41864743  0.67076745  0.10343494    -0.78280
O1250       O  0.35916318  0.67909363  0.12306641    -1.14420
O1251       O  0.38000757  0.68193108  0.04592380    -0.73610
C1252       C  0.37171753  0.70912334  0.04259743     0.97110
C1253       C  0.30140182  0.68476135  0.17725218     0.93500
Al1254     Al  0.36882982  0.68168927  0.17456566     1.55560
O1255       O  0.31544944  0.67443955  0.06339617    -0.78230
C1256       C  0.42998519  0.67326585  0.13767935     0.97670
C1257       C  0.35775660  0.74316631  0.15861024     0.92550
O1258       O  0.33430840  0.73436869  0.13994509    -0.83550
O1259       O  0.35565315  0.97570427  0.08319050    -0.83010
C1260       C  0.38009395  0.87104913  0.16806601     0.96340
O1261       O  0.39825135  0.88083594  0.14127216    -0.72130
O1262       O  0.35980258  0.88823315  0.08300391    -0.75720
Al1263     Al  0.39014922  0.91345276  0.10452861     1.48980
C1264       C  0.33913935  0.89775932  0.06024587     0.91600
O1265       O  0.30160195  0.92704800  0.14327435    -0.81940
O1266       O  0.37085295  0.97399176  0.18939893    -0.75500
Al1267     Al  0.33056335  0.95029788  0.11389781     1.90120
O1268       O  0.32445191  0.93270942  0.20111298    -0.74570
O1269       O  0.41223768  0.92966452  0.18716105    -0.74420
O1270       O  0.36391533  0.88894558  0.18887100    -0.80080
O1271       O  0.42305849  0.93684489  0.12374709    -0.78280
O1272       O  0.36275699  0.93184669  0.13532290    -1.14420
O1273       O  0.38748379  0.94133776  0.06001179    -0.73610
C1274       C  0.37395743  0.96643483  0.05652722     0.97110
C1275       C  0.30064789  0.92705082  0.18097307     0.93500
Al1276     Al  0.36753964  0.93137442  0.18787309     1.55560
O1277       O  0.32574902  0.92248548  0.06846742    -0.78230
C1278       C  0.43129113  0.93632648  0.15972995     0.97670
C1279       C  0.35112907  0.99208070  0.17525086     0.92550
O1280       O  0.32980335  0.98256154  0.15275121    -0.83550
C1281       C  0.36210480  0.77612670  0.16531107    -0.07340
C1282       C  0.39027993  0.78658861  0.18087272    -0.18470
C1283       C  0.39666214  0.81749303  0.18387516     0.09860
C1284       C  0.37454604  0.83853840  0.17097246    -0.07260
C1285       C  0.34642753  0.82837513  0.15621646    -0.18500
C1286       C  0.33971705  0.79784520  0.15353376     0.09890
S1287       S  0.43339593  0.82865695  0.20383930    -0.33460
S1288       S  0.30228776  0.78906431  0.13348936    -0.33470
H1289       H  0.29417987  0.77016225  0.16545462     0.27900
H1290       H  0.42405402  0.85736904  0.21685231     0.27890
H1291       H  0.40777927  0.77065272  0.19002390     0.18490
H1292       H  0.32965269  0.84455764  0.14553669     0.18490
C1293       C  0.36547465  0.58732215  0.17524303    -0.07340
C1294       C  0.33524279  0.57619680  0.17485981    -0.18470
C1295       C  0.32939481  0.54535810  0.17837749     0.09860
C1296       C  0.35440303  0.52496045  0.18207696    -0.07260
C1297       C  0.38435770  0.53663162  0.18617429    -0.18500
C1298       C  0.39018659  0.56742173  0.18228036     0.09890
S1299       S  0.28961293  0.53360229  0.17726897    -0.33460
S1300       S  0.42977110  0.57973818  0.18456513    -0.33470
H1301       H  0.42330631  0.60949937  0.19618808     0.27900
H1302       H  0.29372189  0.50916058  0.20331075     0.27890
H1303       H  0.31613889  0.59149099  0.16978049     0.18490
H1304       H  0.40370554  0.52155853  0.19022061     0.18490
C1305       C  0.52886045  0.94193855  0.17079044    -0.07340
C1306       C  0.51237104  0.96658398  0.15597496    -0.18470
C1307       C  0.48018272  0.96648461  0.15470756     0.09860
C1308       C  0.46398510  0.94115612  0.16895269    -0.07260
C1309       C  0.48040379  0.91742334  0.18659086    -0.18500
C1310       C  0.51276083  0.91724679  0.18685074     0.09890
S1311       S  0.46163225  0.49906722  0.13346380    -0.33460
S1312       S  0.53203195  0.88410705  0.20515706    -0.33470
H1313       H  0.55690601  0.88475018  0.17792598     0.27900
H1314       H  0.43126926  0.99243732  0.14508919     0.27890
H1315       H  0.52480414  0.98553654  0.14351900     0.18490
H1316       H  0.46807291  0.89780302  0.19716912     0.18490
C1317       C  0.61447679  0.78529836  0.16996494    -0.07340
C1318       C  0.63204861  0.79608526  0.20219436    -0.18470
C1319       C  0.63824017  0.82691461  0.20683179     0.09860
C1320       C  0.62788514  0.84734005  0.17765346    -0.07260
C1321       C  0.60916929  0.83699852  0.14689176    -0.18500
C1322       C  0.60168667  0.80672095  0.14312943     0.09890
S1323       S  0.65930468  0.83845218  0.25037183    -0.33460
S1324       S  0.57622180  0.79776816  0.10247327    -0.33470
H1325       H  0.55609270  0.78084170  0.12669793     0.27900
H1326       H  0.65080561  0.86892951  0.24941621     0.27890
H1327       H  0.64152811  0.78041666  0.22356955     0.18490
H1328       H  0.60036403  0.85282112  0.12515947     0.18490
C1329       C  0.63598937  0.59649333  0.17018024    -0.07340
C1330       C  0.60652260  0.58540964  0.18060330    -0.18470
C1331       C  0.60037611  0.55446365  0.18168073     0.09860
C1332       C  0.62407883  0.53383235  0.17212348    -0.07260
C1333       C  0.65370852  0.54456449  0.16340843    -0.18500
C1334       C  0.66003669  0.57536690  0.16249147     0.09890
S1335       S  0.56181988  0.54271533  0.19497478    -0.33460
S1336       S  0.69928326  0.58566257  0.15072743    -0.33470
H1337       H  0.70078307  0.60747001  0.18109847     0.27900
H1338       H  0.57007034  0.51429790  0.20981012     0.27890
H1339       H  0.58773998  0.60093080  0.18675973     0.18490
H1340       H  0.67200448  0.52871868  0.15608308     0.18490
C1341       C  0.52869069  0.68295288  0.14419281    -0.07340
C1342       C  0.51570009  0.66214537  0.11777010    -0.18470
C1343       C  0.48387325  0.65736169  0.11673667     0.09860
C1344       C  0.46399303  0.67442694  0.14185256    -0.07260
C1345       C  0.47700573  0.69429986  0.16962363    -0.18500
C1346       C  0.50903012  0.69898408  0.17077998     0.09890
S1347       S  0.47032308  0.62848722  0.08339022    -0.33460
S1348       S  0.52295620  0.72736694  0.20453186    -0.33470
H1349       H  0.54377064  0.74000803  0.17691295     0.27900
H1350       H  0.44700618  0.61829375  0.10947038     0.27890
H1351       H  0.53056094  0.64936084  0.09772616     0.18490
H1352       H  0.46203820  0.70747073  0.18905765     0.18490
C1353       C  0.32911765  0.85856571  0.94255447    -0.07340
C1354       C  0.35574010  0.85428125  0.96489427    -0.18470
C1355       C  0.35875015  0.86489591  0.00361920     0.09860
C1356       C  0.33431464  0.88183213  0.02141189    -0.07260
C1357       C  0.30716527  0.88640200  0.99899970    -0.18500
C1358       C  0.30412682  0.87454793  0.95989031     0.09890
S1359       S  0.39540049  0.85733531  0.02752777    -0.33460
S1360       S  0.26890235  0.88211219  0.93340937    -0.33470
H1361       H  0.27449207  0.86318722  0.90049171     0.27900
H1362       H  0.41277558  0.84931597  0.99339629     0.27890
H1363       H  0.37515748  0.84316695  0.95126429     0.18490
H1364       H  0.28848304  0.89966004  0.01169189     0.18490
C1365       C  0.38013520  0.72615311  0.00654938    -0.07340
C1366       C  0.37736483  0.71189976  0.96934623    -0.18470
C1367       C  0.37787627  0.72842990  0.93387315     0.09860
C1368       C  0.38085245  0.76009500  0.93557418    -0.07260
C1369       C  0.38695686  0.77371153  0.97258857    -0.18500
C1370       C  0.38652954  0.75717385  0.00799527     0.09890
S1371       S  0.37385304  0.70767680  0.88785578    -0.33460
S1372       S  0.39310005  0.77714359  0.05415790    -0.33470
H1373       H  0.40588625  0.75255666  0.07462293     0.27900
H1374       H  0.39145967  0.72754580  0.86454587     0.27890
H1375       H  0.37299970  0.68796107  0.96796529     0.18490
H1376       H  0.39043079  0.79760605  0.97445878     0.18490
C1377       C  0.30777140  0.61009114  0.94020046    -0.07340
C1378       C  0.30831058  0.59094526  0.97351159    -0.18470
C1379       C  0.30925948  0.60244238  0.01240873     0.09860
C1380       C  0.30947815  0.63386796  0.01824602    -0.07260
C1381       C  0.30456819  0.65275899  0.98520091    -0.18500
C1382       C  0.30389018  0.64118221  0.94632416     0.09890
S1383       S  0.31278996  0.57597552  0.05289366    -0.33460
S1384       S  0.30022716  0.66717766  0.90551117    -0.33470
H1385       H  0.28657544  0.64622618  0.87967569     0.27900
H1386       H  0.29974286  0.59500028  0.08220776     0.27890
H1387       H  0.31118291  0.56699883  0.96922582     0.18490
H1388       H  0.30428819  0.67693923  0.98911590     0.18490
C1389       C  0.37410260  0.98267160  0.01837066    -0.07340
C1390       C  0.34527112  0.98547421  0.00021005    -0.18470
C1391       C  0.34160469  0.50129396  0.96474423     0.09860
C1392       C  0.36753996  0.51515247  0.94678481    -0.07260
C1393       C  0.39664974  0.51219647  0.96465290    -0.18500
C1394       C  0.40030642  0.99573847  0.00013937     0.09890
S1395       S  0.30316693  0.50481781  0.94438577    -0.33460
S1396       S  0.43855621  0.99292669  0.02059784    -0.33470
H1397       H  0.42980469  0.98433749  0.05931142     0.27900
H1398       H  0.28757877  0.48713314  0.97283622     0.27890
H1399       H  0.32531575  0.97521618  0.01428481     0.18490
H1400       H  0.41657542  0.52274498  0.95088917     0.18490
C1401       C  0.35786608  0.97179711  0.79021384    -0.07340
C1402       C  0.38208687  0.96022987  0.76621802    -0.18470
C1403       C  0.38822648  0.92920533  0.76434728     0.09860
C1404       C  0.36998755  0.90943244  0.78728522    -0.07260
C1405       C  0.34564097  0.92067139  0.81038401    -0.18500
C1406       C  0.33919054  0.95122092  0.81213712     0.09890
S1407       S  0.42005941  0.91653271  0.73344955    -0.33460
S1408       S  0.30794229  0.96165648  0.84540049    -0.33470
H1409       H  0.28988832  0.97327392  0.81424459     0.27900
H1410       H  0.41139309  0.88622130  0.73081398     0.27890
H1411       H  0.39658515  0.97541180  0.74921805     0.18490
H1412       H  0.33178996  0.90536169  0.82819258     0.18490
C1413       C  0.36591771  0.65991519  0.78620295    -0.07340
C1414       C  0.39161861  0.67839700  0.78059295    -0.18470
C1415       C  0.38819950  0.70942617  0.77538666     0.09860
C1416       C  0.35840230  0.72270946  0.77850016    -0.07260
C1417       C  0.33264224  0.70376125  0.78177444    -0.18500
C1418       C  0.33603630  0.67264203  0.78534120     0.09890
S1419       S  0.42301232  0.73055740  0.76713464    -0.33460
S1420       S  0.30126591  0.65080724  0.79080759    -0.33470
H1421       H  0.31333230  0.62895903  0.81651444     0.27900
H1422       H  0.41168290  0.74479764  0.73273492     0.27890
H1423       H  0.41456770  0.66859149  0.78071822     0.18490
H1424       H  0.30963116  0.71336673  0.78341411     0.18490
C1425       C  0.66564022  0.77143468  0.94758867    -0.07340
C1426       C  0.68965983  0.75067057  0.95416539    -0.18470
C1427       C  0.69371032  0.73763639  0.99237315     0.09860
C1428       C  0.67471807  0.74715147  0.02485063    -0.07260
C1429       C  0.65543430  0.77199911  0.01889435    -0.18500
C1430       C  0.64754118  0.78077618  0.98070613     0.09890
S1431       S  0.72269559  0.70893530  0.99761826    -0.33460
S1432       S  0.60932647  0.79603849  0.97592400    -0.33470
H1433       H  0.60802979  0.81078531  0.01315809     0.27900
H1434       H  0.72913873  0.71601602  0.03769530     0.27890
H1435       H  0.70380624  0.74315011  0.92921100     0.18490
H1436       H  0.64145366  0.78057011  0.04338746     0.18490
C1437       C  0.61589144  0.88667954  0.01921142    -0.07340
C1438       C  0.58740667  0.88478667  0.99945363    -0.18470
C1439       C  0.58530670  0.87217516  0.96085273     0.09860
C1440       C  0.61265968  0.86301748  0.94069156    -0.07260
C1441       C  0.64092383  0.86557875  0.96028178    -0.18500
C1442       C  0.64281174  0.87647033  0.99905947     0.09890
S1443       S  0.54733900  0.86925170  0.93950537    -0.33460
S1444       S  0.68084340  0.87780620  0.02011369    -0.33470
H1445       H  0.68532310  0.90751894  0.00710417     0.27900
H1446       H  0.55537866  0.85471830  0.90373587     0.27890
H1447       H  0.56666894  0.89290726  0.01432840     0.18490
H1448       H  0.66195555  0.85780025  0.94566595     0.18490
C1449       C  0.52688167  0.80146367  0.79696106    -0.07340
C1450       C  0.50965573  0.78508362  0.82495633    -0.18470
C1451       C  0.47766190  0.78621163  0.82564352     0.09860
C1452       C  0.46216603  0.80471052  0.79796891    -0.07260
C1453       C  0.47914671  0.81876392  0.76733939    -0.18500
C1454       C  0.51150028  0.81747705  0.76666929     0.09890
S1455       S  0.45841036  0.76416863  0.86365551    -0.33460
S1456       S  0.53148966  0.83842766  0.72848370    -0.33470
H1457       H  0.55491554  0.84898550  0.75340184     0.27900
H1458       H  0.43080436  0.76044582  0.84269245     0.27890
H1459       H  0.52135692  0.77182348  0.84739003     0.18490
H1460       H  0.46737976  0.83268626  0.74573064     0.18490
C1461       C  0.66623025  0.50042322  0.93467453    -0.07340
C1462       C  0.63913924  0.48681865  0.94836610    -0.18470
C1463       C  0.63515005  0.97804775  0.98762873     0.09860
C1464       C  0.66018837  0.97932591  0.01455436    -0.07260
C1465       C  0.68859524  0.99072191  0.00044189    -0.18500
C1466       C  0.69157360  0.50216019  0.96105273     0.09890
S1467       S  0.59600843  0.96913686  0.00175668    -0.33460
S1468       S  0.72792095  0.51830853  0.94621543    -0.33470
H1469       H  0.72484460  0.51184704  0.90528071     0.27900
H1470       H  0.58706676  0.95699196  0.96475860     0.27890
H1471       H  0.61914088  0.48589880  0.92929799     0.18490
H1472       H  0.70806423  0.99173466  0.02045652     0.18490
C1473       C  0.61857634  0.64233078  0.01006502    -0.07340
C1474       C  0.61388956  0.61142240  0.01511572    -0.18470
C1475       C  0.61235773  0.59207980  0.98229547     0.09860
C1476       C  0.61686616  0.60369334  0.94339171    -0.07260
C1477       C  0.61938380  0.63494392  0.93837948    -0.18500
C1478       C  0.61993361  0.65436112  0.97110892     0.09890
S1479       S  0.60740685  0.55277785  0.99266673    -0.33460
S1480       S  0.62622334  0.69363330  0.96113674    -0.33470
H1481       H  0.59881782  0.70274783  0.98060653     0.27900
H1482       H  0.58192660  0.54993143  0.96718170     0.27890
H1483       H  0.61228746  0.60214769  0.04497043     0.18490
H1484       H  0.62233226  0.64427815  0.90871715     0.18490
C1485       C  0.62336301  0.89878286  0.77869015    -0.07340
C1486       C  0.64133687  0.91726123  0.75383282    -0.18470
C1487       C  0.63623101  0.94849780  0.75229040     0.09860
C1488       C  0.61380873  0.96188513  0.77796234    -0.07260
C1489       C  0.59455296  0.94283466  0.80040969    -0.18500
C1490       C  0.59895827  0.91182056  0.80112492     0.09890
S1491       S  0.65950253  0.96973583  0.71776396    -0.33460
S1492       S  0.57467216  0.89133157  0.83550492    -0.33470
H1493       H  0.57520254  0.86376266  0.81575224     0.27900
H1494       H  0.63440905  0.48668447  0.70361244     0.27890
H1495       H  0.65973571  0.90735773  0.73596296     0.18490
H1496       H  0.57670037  0.95228716  0.81960918     0.18490
C1497       C  0.63766562  0.64970930  0.79280485    -0.07340
C1498       C  0.61502610  0.66233564  0.76784006    -0.18470
C1499       C  0.60844151  0.69326527  0.76847988     0.09860
C1500       C  0.62481140  0.71211264  0.79463933    -0.07260
C1501       C  0.64778928  0.69993503  0.81871881    -0.18500
C1502       C  0.65472423  0.66932313  0.81788849     0.09890
S1503       S  0.57873936  0.70703631  0.73573185    -0.33460
S1504       S  0.68468687  0.65728680  0.85127390    -0.33470
H1505       H  0.70322819  0.64568638  0.82005059     0.27900
H1506       H  0.57101040  0.73306090  0.75749339     0.27890
H1507       H  0.60180695  0.64795118  0.74829853     0.18490
H1508       H  0.66044015  0.71453773  0.83869768     0.18490
C1509       C  0.46247819  0.56978757  0.81458014    -0.07340
C1510       C  0.47635814  0.55119824  0.78547653    -0.18470
C1511       C  0.50856531  0.54708049  0.78385822     0.09860
C1512       C  0.52760896  0.56243053  0.81129080    -0.07260
C1513       C  0.51372916  0.58188985  0.83924314    -0.18500
C1514       C  0.48172436  0.58610985  0.84075463     0.09890
S1515       S  0.52361113  0.52017533  0.74832425    -0.33460
S1516       S  0.46708829  0.61358158  0.87586172    -0.33470
H1517       H  0.44485366  0.62518068  0.84964567     0.27900
H1518       H  0.54410448  0.50666751  0.77528726     0.27890
H1519       H  0.46194554  0.53862275  0.76516392     0.18490
H1520       H  0.52803455  0.59412196  0.86007315     0.18490
C1521       C  0.21883279  0.92930157  0.25270740    -0.07340
C1522       C  0.23988239  0.90556312  0.25752660    -0.18470
C1523       C  0.26578486  0.90272628  0.23227367     0.09860
C1524       C  0.27096176  0.92425496  0.20207197    -0.07260
C1525       C  0.24950560  0.94733438  0.19650598    -0.18500
C1526       C  0.22384635  0.95033661  0.22165066     0.09890
S1527       S  0.29106202  0.87097071  0.23923208    -0.33460
S1528       S  0.19989393  0.48300050  0.21446505    -0.33470
H1529       H  0.19697677  0.98877286  0.25542126     0.27900
H1530       H  0.30133365  0.86965271  0.19932763     0.27890
H1531       H  0.23588150  0.88895957  0.28059430     0.18490
H1532       H  0.25383831  0.96432812  0.17400407     0.18490
C1533       C  0.22020899  0.67943330  0.25143869    -0.07340
C1534       C  0.24189327  0.70217745  0.25769032    -0.18470
C1535       C  0.26841188  0.70426112  0.23391851     0.09860
C1536       C  0.27361058  0.68317966  0.20293567    -0.07260
C1537       C  0.25188247  0.66034927  0.19658797    -0.18500
C1538       C  0.22541699  0.65805022  0.22088123     0.09890
S1539       S  0.29338206  0.73588739  0.24209932    -0.33460
S1540       S  0.19970384  0.62699476  0.21239925    -0.33470
H1541       H  0.19011805  0.62428772  0.25245027     0.27900
H1542       H  0.31721857  0.71793908  0.25756454     0.27890
H1543       H  0.23765756  0.71903875  0.28054628     0.18490
H1544       H  0.25586736  0.64390898  0.17315453     0.18490
C1545       C  0.13199322  0.77487379  0.27757285    -0.07340
C1546       C  0.10172547  0.78623770  0.28042092    -0.18470
C1547       C  0.09602381  0.81718286  0.28340691     0.09860
C1548       C  0.12104379  0.83739510  0.28321185    -0.07260
C1549       C  0.15102329  0.82629127  0.27679988    -0.18500
C1550       C  0.15677861  0.79538734  0.27382649     0.09890
S1551       S  0.05646516  0.82946802  0.28867030    -0.33460
S1552       S  0.19634672  0.78367342  0.26634492    -0.33470
H1553       H  0.18917024  0.75769847  0.24428904     0.27900
H1554       H  0.06095412  0.85799727  0.27163777     0.27890
H1555       H  0.08244017  0.77090456  0.28263865     0.18490
H1556       H  0.17034010  0.84172145  0.27621397     0.18490
C1557       C  0.13387423  0.52530687  0.29234894    -0.07340
C1558       C  0.10460954  0.53671591  0.28207582    -0.18470
C1559       C  0.09861577  0.56769292  0.28176991     0.09860
C1560       C  0.12236649  0.58779555  0.29158234    -0.07260
C1561       C  0.15178178  0.57680673  0.29999317    -0.18500
C1562       C  0.15799440  0.54599401  0.30076972     0.09890
S1563       S  0.06019136  0.58017735  0.26962964    -0.33460
S1564       S  0.19667362  0.53442388  0.31423558    -0.33470
H1565       H  0.21063602  0.56288949  0.31286582     0.27900
H1566       H  0.06862553  0.60895603  0.25629178     0.27890
H1567       H  0.08588924  0.52143368  0.27560480     0.18490
H1568       H  0.16963150  0.59261671  0.30808761     0.18490
C1569       C  0.77553194  0.94200819  0.25141362    -0.07340
C1570       C  0.76109307  0.91468673  0.24314991    -0.18470
C1571       C  0.73521184  0.91343163  0.21858948     0.09860
C1572       C  0.72284833  0.94015240  0.20276197    -0.07260
C1573       C  0.73761371  0.96755821  0.21022051    -0.18500
C1574       C  0.76408132  0.96876065  0.23414856     0.09890
S1575       S  0.71900670  0.87742283  0.20602169    -0.33460
S1576       S  0.78187277  0.00493806  0.24127188    -0.33470
H1577       H  0.79956198  0.99731680  0.27455028     0.27900
H1578       H  0.73799938  0.85986586  0.23065236     0.27890
H1579       H  0.77062998  0.89418196  0.25539040     0.18490
H1580       H  0.72819019  0.98810673  0.19794300     0.18490
C1581       C  0.96529341  0.94758875  0.30936496    -0.07340
C1582       C  0.98374778  0.96514638  0.33445653    -0.18470
C1583       C  0.01578806  0.96163898  0.33491278     0.09860
C1584       C  0.02981494  0.93916257  0.31101002    -0.07260
C1585       C  0.01167285  0.92245281  0.28459533    -0.18500
C1586       C  0.97962573  0.92665470  0.28319812     0.09890
S1587       S  0.03755772  0.48668364  0.36638402    -0.33460
S1588       S  0.95810592  0.90269645  0.25033675    -0.33470
H1589       H  0.94493511  0.92685452  0.22946604     0.27900
H1590       H  0.06421039  0.98711989  0.34201139     0.27890
H1591       H  0.97307302  0.98173345  0.35397046     0.18490
H1592       H  0.02234606  0.90522381  0.26610238     0.18490
C1593       C  0.77186624  0.69604841  0.25161229    -0.07340
C1594       C  0.76338226  0.72164328  0.22985172    -0.18470
C1595       C  0.73659769  0.72183797  0.20649240     0.09860
C1596       C  0.71830432  0.69570279  0.20448167    -0.07260
C1597       C  0.72676567  0.67029519  0.22633709    -0.18500
C1598       C  0.75318009  0.67016979  0.24974623     0.09890
S1599       S  0.72665646  0.75608182  0.18085332    -0.33460
S1600       S  0.76251608  0.63578048  0.27509065    -0.33470
H1601       H  0.76368371  0.64961844  0.31281573     0.27900
H1602       H  0.69459567  0.75130423  0.18024549     0.27890
H1603       H  0.77742584  0.74161425  0.23143048     0.18490
H1604       H  0.71277569  0.65019317  0.22483522     0.18490
C1605       C  0.87898750  0.78787862  0.27842086    -0.07340
C1606       C  0.90016983  0.80645243  0.29823799    -0.18470
C1607       C  0.89700895  0.83768921  0.29868118     0.09860
C1608       C  0.87226055  0.85109319  0.27791970    -0.07260
C1609       C  0.85262145  0.83291500  0.25531394    -0.18500
C1610       C  0.85614654  0.80161149  0.25450797     0.09890
S1611       S  0.92393132  0.85796315  0.32971819    -0.33460
S1612       S  0.82950480  0.78076079  0.22444445    -0.33470
H1613       H  0.85283026  0.76344290  0.20589218     0.27900
H1614       H  0.90883640  0.88566808  0.33268268     0.27890
H1615       H  0.91831507  0.79646276  0.31595974     0.18490
H1616       H  0.83375131  0.84315112  0.23915172     0.18490
C1617       C  0.85433036  0.60053417  0.28391652    -0.07340
C1618       C  0.83566394  0.58331876  0.30947980    -0.18470
C1619       C  0.83978059  0.55252991  0.31289727     0.09860
C1620       C  0.86368531  0.53825946  0.29158281    -0.07260
C1621       C  0.88091767  0.55456744  0.26345698    -0.18500
C1622       C  0.87583540  0.58555478  0.25859089     0.09890
S1623       S  0.81417714  0.53164132  0.34471633    -0.33460
S1624       S  0.89606666  0.60409330  0.21853788    -0.33470
H1625       H  0.87165630  0.62384223  0.20962291     0.27900
H1626       H  0.79231246  0.55461740  0.35126220     0.27890
H1627       H  0.81841301  0.59406367  0.32829961     0.18490
H1628       H  0.89831481  0.54321215  0.24544772     0.18490
C1629       C  0.96413427  0.69141724  0.30915957    -0.07340
C1630       C  0.98175848  0.71248393  0.33023280    -0.18470
C1631       C  0.01399797  0.71106561  0.33031627     0.09860
C1632       C  0.02927949  0.68775266  0.30924887    -0.07260
C1633       C  0.01180647  0.66732641  0.28687726    -0.18500
C1634       C  0.97942898  0.66864021  0.28714348     0.09890
S1635       S  0.03421185  0.73981487  0.35773177    -0.33460
S1636       S  0.95907889  0.63920590  0.26180236    -0.33470
H1637       H  0.93497964  0.63717817  0.29011435     0.27900
H1638       H  0.06154845  0.73879039  0.33482434     0.27890
H1639       H  0.97024258  0.73028651  0.34684684     0.18490
H1640       H  0.02334780  0.64911700  0.27113308     0.18490
C1641       C  0.21842605  0.82671517  0.70588773    -0.07340
C1642       C  0.21595042  0.82051533  0.74701746    -0.18470
C1643       C  0.24187715  0.81847131  0.77124697     0.09860
C1644       C  0.27150649  0.82367604  0.75464889    -0.07260
C1645       C  0.27386241  0.83181771  0.71412645    -0.18500
C1646       C  0.24785913  0.83362246  0.68974352     0.09890
S1647       S  0.23530566  0.80647839  0.82199473    -0.33460
S1648       S  0.25424960  0.84468140  0.63856568    -0.33470
H1649       H  0.22851406  0.86394958  0.63738363     0.27900
H1650       H  0.25559866  0.78181602  0.81853802     0.27890
H1651       H  0.19370087  0.81531654  0.76029610     0.18490
H1652       H  0.29629927  0.83655099  0.70104037     0.18490
C1653       C  0.17672129  0.85853390  0.51712152    -0.07340
C1654       C  0.17501602  0.83905878  0.48411264    -0.18470
C1655       C  0.17541777  0.85005901  0.44502734     0.09860
C1656       C  0.17829277  0.88124109  0.43868701    -0.07260
C1657       C  0.18521219  0.89990955  0.47146073    -0.18500
C1658       C  0.18360353  0.88902007  0.51067269     0.09890
S1659       S  0.16969078  0.82358122  0.40485461    -0.33460
S1660       S  0.18789972  0.91540464  0.55118311    -0.33470
H1661       H  0.19723594  0.89400282  0.57949435     0.27900
H1662       H  0.18382739  0.84128566  0.37514643     0.27890
H1663       H  0.17035117  0.81550603  0.48874394     0.18490
H1664       H  0.18801414  0.92386270  0.46706936     0.18490
C1665       C  0.12260031  0.73584769  0.44344729    -0.07340
C1666       C  0.09383806  0.74139307  0.46163447    -0.18470
C1667       C  0.09177747  0.75693121  0.49806547     0.09860
C1668       C  0.11928371  0.76493054  0.51775861    -0.07260
C1669       C  0.14784894  0.75850144  0.49991397    -0.18500
C1670       C  0.14987522  0.74546471  0.46226219     0.09890
S1671       S  0.05364082  0.76510603  0.51735383    -0.33460
S1672       S  0.18766396  0.74109125  0.43936679    -0.33470
H1673       H  0.20438211  0.75778601  0.46753108     0.27900
H1674       H  0.06228179  0.77664793  0.55444876     0.27890
H1675       H  0.07294166  0.73409155  0.44699545     0.18490
H1676       H  0.16882330  0.76497885  0.51502236     0.18490
C1677       C  0.21926856  0.57054997  0.70109163    -0.07340
C1678       C  0.24202446  0.54873373  0.69351721    -0.18470
C1679       C  0.26835026  0.54662600  0.71731132     0.09860
C1680       C  0.27254299  0.56705281  0.74924569    -0.07260
C1681       C  0.24957009  0.58857819  0.75720148    -0.18500
C1682       C  0.22323599  0.59071058  0.73336546     0.09890
S1683       S  0.29393295  0.01525628  0.70862845    -0.33460
S1684       S  0.19599600  0.62009013  0.74511495    -0.33470
H1685       H  0.18683746  0.62365840  0.70550309     0.27900
H1686       H  0.31787554  0.53356925  0.69400701     0.27890
H1687       H  0.23868481  0.53244324  0.66983714     0.18490
H1688       H  0.25226303  0.60404052  0.78193119     0.18490
C1689       C  0.17812618  0.61722620  0.51774187    -0.07340
C1690       C  0.18378281  0.59846300  0.48448333    -0.18470
C1691       C  0.18348140  0.60987448  0.44542725     0.09860
C1692       C  0.17815776  0.64077868  0.43935174    -0.07260
C1693       C  0.17667884  0.65991456  0.47275730    -0.18500
C1694       C  0.17668989  0.64860435  0.51171248     0.09890
S1695       S  0.18756362  0.58367316  0.40458421    -0.33460
S1696       S  0.17235423  0.67523505  0.55218314    -0.33470
H1697       H  0.18677048  0.65710814  0.58096797     0.27900
H1698       H  0.19780038  0.60490628  0.37640798     0.27890
H1699       H  0.18525507  0.57435043  0.48848024     0.18490
H1700       H  0.17251651  0.68362028  0.46863743     0.18490
C1701       C  0.11252664  0.98115385  0.44715202    -0.07340
C1702       C  0.11271473  0.51237899  0.44107629    -0.18470
C1703       C  0.11047343  0.53247650  0.47309829     0.09860
C1704       C  0.10969086  0.52123765  0.51253810    -0.07260
C1705       C  0.10624385  0.99020770  0.51839312    -0.18500
C1706       C  0.10717028  0.97007577  0.48624970     0.09890
S1707       S  0.11118156  0.57194283  0.46156150    -0.33460
S1708       S  0.10326141  0.93079380  0.49808999    -0.33470
H1709       H  0.12862529  0.92168432  0.47495374     0.27900
H1710       H  0.08476519  0.57843616  0.48483992     0.27890
H1711       H  0.11548097  0.52124549  0.41112759     0.18490
H1712       H  0.10457336  0.98141617  0.54850246     0.18490
C1713       C  0.12681141  0.97843895  0.66937171    -0.07340
C1714       C  0.15157234  0.95940439  0.67865584    -0.18470
C1715       C  0.14854551  0.92819859  0.67692707     0.09860
C1716       C  0.11980916  0.91548825  0.66667087    -0.07260
C1717       C  0.09467411  0.93452302  0.65902325    -0.18500
C1718       C  0.09793180  0.96577314  0.65977158     0.09890
S1719       S  0.18300545  0.90612156  0.68420540    -0.33460
S1720       S  0.06520067  0.98799357  0.64466536    -0.33470
H1721       H  0.08222561  0.50726948  0.61962569     0.27900
H1722       H  0.17777937  0.88705917  0.65139621     0.27890
H1723       H  0.17394937  0.96895856  0.68525117     0.18490
H1724       H  0.07268315  0.92496069  0.65060795     0.18490
C1725       C  0.12168689  0.66604963  0.67405728    -0.07340
C1726       C  0.15178247  0.67726383  0.67545865    -0.18470
C1727       C  0.15735208  0.70780187  0.68103396     0.09860
C1728       C  0.13219481  0.72816305  0.68305076    -0.07260
C1729       C  0.10203092  0.71665569  0.68454161    -0.18500
C1730       C  0.09653240  0.68583561  0.67990270     0.09890
S1731       S  0.19720267  0.71921806  0.68426691    -0.33460
S1732       S  0.05700725  0.67336963  0.67981276    -0.33470
H1733       H  0.06345108  0.64406477  0.69274025     0.27900
H1734       H  0.19126781  0.74378961  0.70981645     0.27890
H1735       H  0.17111701  0.66248554  0.67006549     0.18490
H1736       H  0.08257833  0.73178852  0.68706248     0.18490
C1737       C  0.77207620  0.80581679  0.70621451    -0.07340
C1738       C  0.76199845  0.77889689  0.72369810    -0.18470
C1739       C  0.73574046  0.77831966  0.74872897     0.09860
C1740       C  0.71970153  0.80542338  0.75679982    -0.07260
C1741       C  0.72998098  0.83219975  0.73947367    -0.18500
C1742       C  0.75572342  0.83265346  0.71420257     0.09890
S1743       S  0.72358793  0.74229246  0.76790151    -0.33460
S1744       S  0.76681506  0.86829263  0.69337853    -0.33950
H1745       H  0.76948807  0.85704369  0.65422881     0.27900
H1746       H  0.70211307  0.75239961  0.79659194     0.27890
H1747       H  0.77467565  0.75828542  0.71787571     0.18490
H1748       H  0.71742507  0.85293555  0.74512951     0.18490
C1749       C  0.82724132  0.76816534  0.51246088    -0.07340
C1750       C  0.80283706  0.74831008  0.50435769    -0.18470
C1751       C  0.79875024  0.73663937  0.46525837     0.09860
C1752       C  0.81784289  0.74700416  0.43338796    -0.07260
C1753       C  0.83782260  0.77083811  0.44127697    -0.18500
C1754       C  0.84566925  0.77797713  0.47997474     0.09890
S1755       S  0.76980021  0.70830808  0.45823958    -0.33460
S1756       S  0.88376384  0.79304666  0.48440005    -0.33470
H1757       H  0.89437398  0.76848494  0.50684319     0.27900
H1758       H  0.76337311  0.71658078  0.41861136     0.27890
H1759       H  0.78836380  0.74043295  0.52868430     0.18490
H1760       H  0.85226557  0.78003761  0.41772196     0.18490
C1761       C  0.87383575  0.86164403  0.51680074    -0.07340
C1762       C  0.90212164  0.87246568  0.50195563    -0.18470
C1763       C  0.90389394  0.88617501  0.46418147     0.09860
C1764       C  0.87718648  0.88761030  0.44036916    -0.07260
C1765       C  0.84951521  0.87561140  0.45471652    -0.18500
C1766       C  0.84721434  0.86353384  0.49276286     0.09890
S1767       S  0.94058973  0.90090454  0.44787077    -0.33460
S1768       S  0.80966407  0.85093571  0.50955824    -0.33470
H1769       H  0.79505157  0.85105220  0.47220139     0.27900
H1770       H  0.93471762  0.89922139  0.40668829     0.27890
H1771       H  0.92268315  0.87050428  0.51994641     0.18490
H1772       H  0.82885379  0.87765596  0.43691854     0.18490
C1773       C  0.96456582  0.80806667  0.66291020    -0.07340
C1774       C  0.98290050  0.78457162  0.64790770    -0.18470
C1775       C  0.01492457  0.78727337  0.64517029     0.09860
C1776       C  0.02886149  0.81451930  0.65677977    -0.07260
C1777       C  0.01072536  0.83733640  0.67412681    -0.18500
C1778       C  0.97867625  0.83430303  0.67756954     0.09890
S1779       S  0.03611301  0.75503962  0.62660207    -0.33460
S1780       S  0.95699944  0.86538419  0.69813260    -0.33470
H1781       H  0.93368321  0.84770350  0.71537721     0.27900
H1782       H  0.06602277  0.76475813  0.63546334     0.27890
H1783       H  0.97201158  0.76431313  0.63689016     0.18490
H1784       H  0.02145774  0.85810900  0.68356941     0.18490
C1785       C  0.77124238  0.55404265  0.70004071    -0.07340
C1786       C  0.76379960  0.52744158  0.72023902    -0.18470
C1787       C  0.73777525  0.52584033  0.74541522     0.09860
C1788       C  0.71863074  0.55141766  0.74980576    -0.07260
C1789       C  0.72624735  0.57797526  0.72966676    -0.18500
C1790       C  0.75232235  0.57959078  0.70510482     0.09890
S1791       S  0.73061648  0.99068310  0.77060378    -0.33460
S1792       S  0.76098192  0.61517858  0.68225910    -0.33470
H1793       H  0.76574836  0.60281609  0.64403518     0.27900
H1794       H  0.69961167  0.49569722  0.78122288     0.27890
H1795       H  0.77830430  0.50784393  0.71631633     0.18490
H1796       H  0.71186385  0.59780031  0.73347361     0.18490
C1797       C  0.81518952  0.49690896  0.52341947    -0.07340
C1798       C  0.79670829  0.51024845  0.49393273    -0.18470
C1799       C  0.79488575  0.99775421  0.45547044     0.09860
C1800       C  0.81264213  0.97209770  0.44591720    -0.07260
C1801       C  0.82660963  0.95621789  0.47701057    -0.18500
C1802       C  0.82751021  0.46788000  0.51586878     0.09890
S1803       S  0.76876915  0.01475045  0.42077129    -0.33460
S1804       S  0.84560525  0.44589203  0.55470464    -0.33470
H1805       H  0.85857682  0.42375863  0.52967336     0.27900
H1806       H  0.76834971  0.99035906  0.39395968     0.27890
H1807       H  0.78543429  0.53159328  0.49980765     0.18490
H1808       H  0.83886957  0.93566602  0.47018308     0.18490
C1809       C  0.87570354  0.60297922  0.50592923    -0.07340
C1810       C  0.87872029  0.63404444  0.51190017    -0.18470
C1811       C  0.87812036  0.65408556  0.47985879     0.09860
C1812       C  0.87508122  0.64284739  0.44050621    -0.07260
C1813       C  0.87514823  0.61155583  0.43440308    -0.18500
C1814       C  0.87510057  0.59156880  0.46655122     0.09890
S1815       S  0.87802674  0.69353191  0.49191405    -0.33460
S1816       S  0.87114395  0.55217570  0.45526804    -0.33470
H1817       H  0.84720809  0.54784909  0.48313167     0.27900
H1818       H  0.85060398  0.69891176  0.47110990     0.27890
H1819       H  0.87960753  0.64291571  0.54204552     0.18490
H1820       H  0.87330791  0.60257516  0.40439398     0.18490
C1821       C  0.87473880  0.96243094  0.67265511    -0.07340
C1822       C  0.89336742  0.94278881  0.64994236    -0.18470
C1823       C  0.88893397  0.91181860  0.65020764     0.09860
C1824       C  0.86536473  0.89934808  0.67454079    -0.07260
C1825       C  0.84789072  0.91849771  0.69932681    -0.18500
C1826       C  0.85281994  0.94972599  0.69943659     0.09890
S1827       S  0.91280814  0.89084709  0.61540375    -0.33460
S1828       S  0.83014141  0.97171739  0.73402850    -0.33470
H1829       H  0.85552270  0.48848844  0.74740497     0.27900
H1830       H  0.90418671  0.86202377  0.62650645     0.27890
H1831       H  0.91079211  0.95169303  0.62981727     0.18490
H1832       H  0.83012020  0.90908175  0.71849742     0.18490
C1833       C  0.85577183  0.65068167  0.65854835    -0.07340
C1834       C  0.87386720  0.66274702  0.68947644    -0.18470
C1835       C  0.88039036  0.69365857  0.69149577     0.09860
C1836       C  0.86891817  0.71292249  0.66170694    -0.07260
C1837       C  0.85062956  0.70113943  0.63135300    -0.18500
C1838       C  0.84350610  0.67067868  0.62965808     0.09890
S1839       S  0.90389770  0.70687152  0.73206145    -0.33460
S1840       S  0.81981169  0.65925940  0.58842541    -0.33470
H1841       H  0.79538866  0.65024640  0.61359332     0.27900
H1842       H  0.91540439  0.73264094  0.71297100     0.27890
H1843       H  0.88334745  0.64797629  0.71194541     0.18490
H1844       H  0.84160341  0.71598084  0.60859467     0.18490
C1845       C  0.96342586  0.55723734  0.64426907    -0.07340
C1846       C  0.97620445  0.57299548  0.67654624    -0.18470
C1847       C  0.00827385  0.57741944  0.67916507     0.09860
C1848       C  0.02792723  0.56702346  0.64796344    -0.07260
C1849       C  0.01509347  0.54992837  0.61707910    -0.18500
C1850       C  0.98358958  0.54417570  0.61554000     0.09890
S1851       S  0.02229907  0.59764014  0.72179058    -0.33460
S1852       S  0.97105148  0.51882340  0.57690068    -0.33470
H1853       H  0.95096221  0.50297089  0.60242829     0.27900
H1854       H  0.04284022  0.57459988  0.73274378     0.27890
H1855       H  0.96113522  0.58240996  0.69939958     0.18490
H1856       H  0.02989175  0.54056350  0.59385871     0.18490
loop_ 
_geom_bond_atom_site_label_1 
_geom_bond_atom_site_label_2 
_geom_bond_distance 
_geom_bond_site_symmetry_2 
_ccdc_geom_bond_type 
O1           C16   1.256       .  A
O1           Al9   1.875       .  S
C2           O12   1.265   1_565  A
C2            O3   1.269   1_565  A
C2         C1821   1.495       .  S
O3           Al5   1.918       .  S
O4            C6   1.254       .  A
O4           Al5   1.871       .  S
Al5          O13   1.877       .  S
Al5          O15   1.928       .  S
Al5          O14   1.766       .  S
C6           O19   1.266       .  A
C6          C869   1.489   1_545  S
O7           C17   1.260       .  A
O7           Al9   1.896       .  S
O8           C21   1.269       .  A
O8          Al18   1.915       .  S
Al9          O22   1.925       .  S
Al9          O19   1.939       .  S
Al9          O14   1.772       .  S
O10          C17   1.263       .  A
O10         Al18   1.927       .  S
O11          C20   1.265       .  A
O11         Al18   1.947       .  S
O12         Al18   1.913       .  S
O13          C20   1.255       .  A
O14         Al18   1.784       .  S
O15          C16   1.263       .  A
C16         C881   1.473       .  S
C17         C857   1.467       .  S
C20         C917   1.483       .  S
C21          O22   1.267       .  A
C21         C905   1.491       .  S
O23          C38   1.253       .  A
O23         Al31   1.870       .  S
C24          O34   1.269       .  A
C24          O25   1.272       .  A
C24         C908   1.469       .  S
O25         Al27   1.929       .  S
O26          C28   1.254       .  A
O26         Al27   1.886       .  S
Al27         O35   1.872       .  S
Al27         O37   1.916       .  S
Al27         O36   1.769       .  S
C28          O41   1.267       .  A
C28         C821   1.488       .  S
O29          C39   1.258       .  A
O29         Al31   1.905       .  S
O30          C43   1.267       .  A
O30         Al40   1.900       .  S
Al31         O44   1.944       .  S
Al31         O41   1.949       .  S
Al31         O36   1.778       .  S
O32          C39   1.259       .  A
O32         Al40   1.921       .  S
O33          C42   1.257       .  A
O33         Al40   1.927       .  S
O34         Al40   1.901       .  S
O35          C42   1.250       .  A
O36         Al40   1.792       .  S
O37          C38   1.262       .  A
C38         C833   1.471       .  S
C39         C809   1.472       .  S
C42         C845   1.463       .  S
C43          O44   1.273       .  A
C43         C896   1.476       .  S
O45          C60   1.261       .  A
O45         Al53   1.887       .  S
C46          O56   1.261       .  A
C46          O47   1.265       .  A
C46         C797   1.470       .  S
O47         Al49   1.924       .  S
O48          C50   1.259       .  A
O48         Al49   1.888       .  S
Al49         O57   1.872       .  S
Al49         O59   1.925       .  S
Al49         O58   1.775       .  S
C50          O63   1.265       .  A
C50         C761   1.484       .  S
O51          C61   1.264       .  A
O51         Al53   1.901       .  S
O52         C993   1.262       .  A
O52         Al62   1.902       .  S
Al53         O66   1.914       .  S
Al53         O63   1.932       .  S
Al53         O58   1.780       .  S
O54          C61   1.267       .  A
O54         Al62   1.933       .  S
O55          C64   1.263       .  A
O55         Al62   1.939       .  S
O56         Al62   1.890       .  S
O57          C64   1.256       .  A
O58         Al62   1.781       .  S
O59          C60   1.263       .  A
C60         C776   1.478       .  S
C61         C749   1.480       .  S
C64         C920   1.485       .  S
C65         O980   1.262       .  A
C65         O994   1.263       .  A
C65         C785   1.472       .  S
O66         C993   1.263       .  A
O67          C82   1.260       .  A
O67         Al75   1.882       .  S
C68          O78   1.262       .  A
C68          O69   1.266       .  A
C68         C788   1.474       .  S
O69         Al71   1.921       .  S
O70          C72   1.261       .  A
O70         Al71   1.905       .  S
Al71         O79   1.892       .  S
Al71         O81   1.918       .  S
Al71         O80   1.775       .  S
C72          O85   1.260       .  A
C72         C725   1.474       .  S
O73          C83   1.263       .  A
O73         Al75   1.900       .  S
O74          C87   1.265       .  A
O74         Al84   1.912       .  S
Al75         O88   1.903       .  S
Al75         O85   1.913       .  S
Al75         O80   1.775       .  S
O76          C83   1.265       .  A
O76         Al84   1.908       .  S
O77          C86   1.259       .  A
O77         Al84   1.912       .  S
O78         Al84   1.888       .  S
O79          C86   1.258       .  A
O80         Al84   1.779       .  S
O81          C82   1.263       .  A
C82         C740   1.461       .  S
C83         C713   1.486       .  S
C86         C848   1.464       .  S
C87          O88   1.262       .  A
C87         C800   1.480       .  S
O89         C104   1.260       .  A
O89         Al97   1.879       .  S
C90         O100   1.262       .  A
C90          O91   1.264       .  A
C90         C677   1.489       .  S
O91         Al93   1.909       .  S
O92          C94   1.256       .  A
O92         Al93   1.878       .  S
Al93        O101   1.875       .  S
Al93        O103   1.941       .  S
Al93        O102   1.757       .  S
C94         O107   1.263       .  A
C94         C824   1.497       .  S
O95         C105   1.264       .  A
O95         Al97   1.895       .  S
O96         C109   1.262       .  A
O96        Al106   1.906       .  S
Al97        O110   1.906       .  S
Al97        O107   1.960       .  S
Al97        O102   1.780       .  S
O98         C105   1.271       .  A
O98        Al106   1.947       .  S
O99         C108   1.269       .  A
O99        Al106   1.949       .  S
O100       Al106   1.907       .  S
O101        C108   1.257       .  A
O102       Al106   1.776       .  S
O103        C104   1.268       .  A
C104        C884   1.480       .  S
C105        C665   1.473       .  S
C108        C701   1.478       .  S
C109        O110   1.264       .  A
C109        C689   1.481       .  S
O111        C126   1.263       .  A
O111       Al119   1.883       .  S
C112        O122   1.259       .  A
C112        O113   1.266       .  A
C112       C1620   1.465       .  S
O113       Al115   1.914       .  S
O114        C116   1.258       .  A
O114       Al115   1.907       .  S
Al115       O123   1.882       .  S
Al115       O125   1.920       .  S
Al115       O124   1.779       .  S
C116        O129   1.258       .  A
C116        C872   1.480       .  S
O117        C127   1.265       .  A
O117       Al119   1.900       .  S
O118        C131   1.259       .  A
O118       Al128   1.901       .  S
Al119       O132   1.918       .  S
Al119       O129   1.925       .  S
Al119       O124   1.784       .  S
O120        C127   1.267       .  A
O120       Al128   1.928       .  S
O121        C130   1.258       .  A
O121       Al128   1.912       .  S
O122       Al128   1.886       .  S
O123        C130   1.256       .  A
O124       Al128   1.791       .  S
O125        C126   1.265       .  A
C126        C836   1.465       .  S
C127        C641   1.469       .  S
C130        C653   1.477       .  S
C131        O132   1.261       .  A
C131        C680   1.468       .  S
O133        C148   1.257       .  A
O133       Al141   1.876       .  S
C134        O144   1.261       .  A
C134        O135   1.266       .  A
C134        C632   1.464       .  S
O135       Al137   1.928       .  S
O136        C138   1.260       .  A
O136       Al137   1.902       .  S
Al137       O145   1.884       .  S
Al137       O147   1.927       .  S
Al137       O146   1.775       .  S
C138        O151   1.264       .  A
C138        C764   1.480       .  S
O139        C149   1.260       .  A
O139       Al141   1.886       .  S
O140        C153   1.265       .  A
O140       Al150   1.910       .  S
Al141       O154   1.921       .  S
Al141       O151   1.932       .  S
Al141       O146   1.774       .  S
O142        C149   1.266       .  A
O142       Al150   1.932       .  S
O143        C152   1.264       .  A
O143       Al150   1.935       .  S
O144       Al150   1.887       .  S
O145        C152   1.258       .  A
O146       Al150   1.778       .  S
O147        C148   1.265       .  A
C148        C737   1.463       .  S
C149        C605   1.470       .  S
C152        C704   1.475       .  S
C153        O154   1.265       .  A
C153        C617   1.484       .  S
O155        C170   1.261       .  A
O155       Al163   1.883       .  S
C156        O166   1.264       .  A
C156        O157   1.268       .  A
C156        C620   1.475       .  S
O157       Al159   1.928       .  S
O158        C160   1.259       .  A
O158       Al159   1.894       .  S
Al159       O167   1.879       .  S
Al159       O169   1.921       .  S
Al159       O168   1.775       .  S
C160        O173   1.259       .  A
C160        C728   1.480       .  S
O161        C171   1.264       .  A
O161       Al163   1.915       .  S
O162       C1103   1.268       .  A
O162       Al172   1.915       .  S
Al163       O176   1.905       .  S
Al163       O173   1.908       .  S
Al163       O168   1.777       .  S
O164        C171   1.262       .  A
O164       Al172   1.911       .  S
O165        C174   1.259       .  A
O165       Al172   1.922       .  S
O166       Al172   1.899       .  S
O167        C174   1.253       .  A
O168       Al172   1.784       .  S
O169        C170   1.264       .  A
C170        C773   1.479       .  S
C171        C593   1.476       .  S
C174        C656   1.471       .  S
C175       O1090   1.268       .  A
C175       O1104   1.262       .  A
C175        C629   1.489   1_565  S
O176       C1103   1.262       .  A
O177        C192   1.260       .  A
O177       Al185   1.872       .  S
C178        O188   1.264   1_565  A
C178        O179   1.266   1_565  A
C178       C1488   1.495       .  S
O179       Al181   1.910       .  S
O180        C182   1.256       .  A
O180       Al181   1.886       .  S
Al181       O189   1.884       .  S
Al181       O191   1.938       .  S
Al181       O190   1.751       .  S
C182        O195   1.265       .  A
C182        C533   1.491       .  S
O183        C193   1.265       .  A
O183       Al185   1.900       .  S
O184        C197   1.269       .  A
O184       Al194   1.915       .  S
Al185       O198   1.926       .  S
Al185       O195   1.965       .  S
Al185       O190   1.780       .  S
O186        C193   1.268       .  A
O186       Al194   1.924       .  S
O187        C196   1.268       .  A
O187       Al194   1.952       .  S
O188       Al194   1.918       .  S
O189        C196   1.258       .  A
O190       Al194   1.769       .  S
O191        C192   1.267       .  A
C192        C548   1.477       .  S
C193        C860   1.466       .  S
C196        C584   1.485       .  S
C197        O198   1.266       .  A
C197        C569   1.493       .  S
O199        C214   1.257       .  A
O199       Al207   1.882       .  S
C200        O210   1.265       .  A
C200        O201   1.270       .  A
C200        C572   1.466       .  S
O201       Al203   1.930       .  S
O202        C204   1.256       .  A
O202       Al203   1.892       .  S
Al203       O211   1.860       .  S
Al203       O213   1.919       .  S
Al203       O212   1.767       .  S
C204        O217   1.268       .  A
C204        C497   1.486       .  S
O205        C215   1.262       .  A
O205       Al207   1.908       .  S
O206        C219   1.265       .  A
O206       Al216   1.897       .  S
Al207       O220   1.943       .  S
Al207       O217   1.954       .  S
Al207       O212   1.780       .  S
O208        C215   1.261       .  A
O208       Al216   1.912       .  S
O209        C218   1.259       .  A
O209       Al216   1.930       .  S
O210       Al216   1.894       .  S
O211        C218   1.251       .  A
O212       Al216   1.790       .  S
O213        C214   1.263       .  A
C214        C512   1.475       .  S
C215        C812   1.467       .  S
C218        C521   1.466       .  S
C219        O220   1.271       .  A
C219        C557   1.477       .  S
O221        C236   1.261       .  A
O221       Al229   1.880       .  S
C222        O232   1.264       .  A
C222        O223   1.268       .  A
C222        C485   1.468       .  S
O223       Al225   1.923       .  S
O224        C226   1.256       .  A
O224       Al225   1.895       .  S
Al225       O233   1.890       .  S
Al225       O235   1.941       .  S
Al225       O234   1.773       .  S
C226        O239   1.257       .  A
C226        C449   1.475       .  S
O227        C237   1.265       .  A
O227       Al229   1.904       .  S
O228       C1169   1.269       .  A
O228       Al238   1.926       .  S
Al229       O242   1.907       .  S
Al229       O239   1.914       .  S
Al229       O234   1.776       .  S
O230        C237   1.268       .  A
O230       Al238   1.935       .  S
O231        C240   1.262       .  A
O231       Al238   1.934       .  S
O232       Al238   1.896       .  S
O233        C240   1.256       .  A
O234       Al238   1.780       .  S
O235        C236   1.270       .  A
C236        C464   1.475       .  S
C237        C752   1.480       .  S
C240        C581   1.488       .  S
C241       O1156   1.269       .  A
C241       O1170   1.260       .  A
C241        C473   1.488       .  S
O242       C1169   1.260       .  A
O243        C258   1.259       .  A
O243       Al251   1.883       .  S
C244        O254   1.261       .  A
C244        O245   1.265       .  A
C244        C476   1.462       .  S
O245       Al247   1.921       .  S
O246        C248   1.255       .  A
O246       Al247   1.891       .  S
Al247       O255   1.855       .  S
Al247       O257   1.935       .  S
Al247       O256   1.761       .  S
C248        O261   1.266       .  A
C248        C425   1.481       .  S
O249        C259   1.263       .  A
O249       Al251   1.897       .  S
O250        C263   1.260       .  A
O250       Al260   1.889       .  S
Al251       O264   1.938       .  S
Al251       O261   1.958       .  S
Al251       O256   1.778       .  S
O252        C259   1.267       .  A
O252       Al260   1.921       .  S
O253        C262   1.263       .  A
O253       Al260   1.928       .  S
O254       Al260   1.891       .  S
O255        C262   1.253       .  A
O256       Al260   1.779       .  S
O257        C258   1.268       .  A
C258        C440   1.482       .  S
C259        C716   1.483       .  S
C262        C524   1.469       .  S
C263        O264   1.271       .  A
C263        C488   1.487       .  S
O265        C280   1.259       .  A
O265       Al273   1.884       .  S
C266        O276   1.267       .  A
C266        O267   1.258       .  A
C266        C389   1.496       .  S
O267       Al269   1.900       .  S
O268        C270   1.258       .  A
O268       Al269   1.869       .  S
Al269       O277   1.882       .  S
Al269       O279   1.915       .  S
Al269       O278   1.754       .  S
C270        O283   1.267       .  A
C270        C500   1.497       .  S
O271        C281   1.262       .  A
O271       Al273   1.902       .  S
O272        C285   1.268       .  A
O272       Al282   1.909       .  S
Al273       O286   1.927       .  S
Al273       O283   1.965       .  S
Al273       O278   1.778       .  S
O274        C281   1.265       .  A
O274       Al282   1.920       .  S
O275        C284   1.269       .  A
O275       Al282   1.948       .  S
O276       Al282   1.930       .  S
O277        C284   1.260       .  A
O278       Al282   1.773       .  S
O279        C280   1.261       .  A
C280        C545   1.469       .  S
C281        C668   1.468       .  S
C284        C413   1.480       .  S
C285        O286   1.268       .  A
C285        C401   1.496       .  S
O287        C302   1.255       .  A
O287       Al295   1.883       .  S
C288        O298   1.267       .  A
C288        O289   1.272       .  A
C288       C1332   1.474       .  S
O289       Al291   1.945       .  S
O290        C292   1.256       .  A
O290       Al291   1.883       .  S
Al291       O299   1.870       .  S
Al291       O301   1.932       .  S
Al291       O300   1.761       .  S
C292        O305   1.270       .  A
C292        C536   1.490       .  S
O293        C303   1.262       .  A
O293       Al295   1.913       .  S
O294        C307   1.266       .  A
O294       Al304   1.895       .  S
Al295       O308   1.947       .  S
Al295       O305   1.966       .  S
Al295       O300   1.775       .  S
O296        C303   1.263       .  A
O296       Al304   1.923       .  S
O297        C306   1.262       .  A
O297       Al304   1.943       .  S
O298       Al304   1.897       .  S
O299        C306   1.251       .  A
O300       Al304   1.783       .  S
O301        C302   1.263       .  A
C302        C509   1.483       .  S
C303        C644   1.473       .  S
C306        C377   1.464       .  S
C307        O308   1.274       .  A
C307        C392   1.472       .  S
O309        C324   1.261       .  A
O309       Al317   1.881       .  S
C310        O320   1.263       .  A
C310        O311   1.265       .  A
C310        C365   1.472       .  S
O311       Al313   1.918       .  S
O312        C314   1.256       .  A
O312       Al313   1.891       .  S
Al313       O321   1.883       .  S
Al313       O323   1.926       .  S
Al313       O322   1.776       .  S
C314        O327   1.258       .  A
C314        C452   1.478       .  S
O315        C325   1.263       .  A
O315       Al317   1.905       .  S
O316        C329   1.268       .  A
O316       Al326   1.926       .  S
Al317       O330   1.907       .  S
Al317       O327   1.910       .  S
Al317       O322   1.778       .  S
O318        C325   1.265       .  A
O318       Al326   1.921       .  S
O319        C328   1.262       .  A
O319       Al326   1.929       .  S
O320       Al326   1.904       .  S
O321        C328   1.256       .  A
O322       Al326   1.781       .  S
O323        C324   1.267       .  A
C324        C437   1.470       .  S
C325        C608   1.475       .  S
C328        C416   1.482       .  S
C329        O330   1.261       .  A
C329        C353   1.496       .  S
O331        C346   1.256       .  A
O331       Al339   1.874       .  S
C332        O342   1.263       .  A
C332        O333   1.266       .  A
C332        C356   1.471       .  S
O333       Al335   1.938       .  S
O334        C336   1.254       .  A
O334       Al335   1.879       .  S
Al335       O343   1.886       .  S
Al335       O345   1.946       .  S
Al335       O344   1.762       .  S
C336        O349   1.271       .  A
C336        C428   1.496       .  S
O337        C347   1.262       .  A
O337       Al339   1.898       .  S
O338        C351   1.268       .  A
O338       Al348   1.904       .  S
Al339       O352   1.935       .  S
Al339       O349   1.971       .  S
Al339       O344   1.774       .  S
O340        C347   1.263       .  A
O340       Al348   1.915       .  S
O341        C350   1.265       .  A
O341       Al348   1.937       .  S
O342       Al348   1.896       .  S
O343        C350   1.259       .  A
O344       Al348   1.773       .  S
O345        C346   1.266       .  A
C346        C461   1.469       .  S
C347        C596   1.467       .  S
C350        C380   1.469       .  S
C351        O352   1.271       .  A
C351       C1296   1.488       .  S
C353        C354   1.412       .  A
C353        C358   1.426       .  A
C354        C355   1.408       .  A
C354        H363   1.083       .  S
C355        C356   1.409       .  A
C355        S359   1.803       .  S
C356        C357   1.395       .  A
C357        C358   1.394       .  A
C357        H364   1.085       .  S
C358        S360   1.804       .  S
S359        H362   1.406       .  S
S360        H361   1.405       .  S
C365        C366   1.402       .  A
C365        C370   1.409       .  A
C366        C367   1.402       .  A
C366        H375   1.085       .  S
C367        C368   1.417       .  A
C367        S371   1.804       .  S
C368       C1279   1.488   1_545  S
C368        C369   1.407       .  A
C369        C370   1.401       .  A
C369        H376   1.081       .  S
C370        S372   1.804       .  S
S371        H374   1.408       .  S
S372        H373   1.406       .  S
C377        C378   1.401       .  A
C377        C382   1.409       .  A
C378        C379   1.395       .  A
C378        H387   1.085       .  S
C379        C380   1.412       .  A
C379       S1311   1.806       .  S
C380        C381   1.406       .  A
C381        C382   1.402       .  A
C381        H388   1.084       .  S
C382        S384   1.804       .  S
S383       C1307   1.806       .  S
S383       H1314   1.401       .  S
S384        H385   1.405       .  S
H386       S1311   1.401       .  S
C389        C390   1.410       .  A
C389        C394   1.426       .  A
C390        C391   1.408       .  A
C390        H399   1.083       .  S
C391        C392   1.411       .  A
C391        S395   1.801       .  S
C392        C393   1.395       .  A
C393        C394   1.393       .  A
C393        H400   1.085       .  S
C394        S396   1.804       .  S
S395        H398   1.405       .  S
S396        H397   1.407       .  S
C401        C402   1.411       .  A
C401        C406   1.422       .  A
C402        C403   1.404       .  A
C402        H411   1.083       .  S
C403        C404   1.409       .  A
C403        S407   1.804       .  S
C404       C1216   1.474       .  S
C404        C405   1.400       .  A
C405        C406   1.400       .  A
C405        H412   1.085       .  S
C406        S408   1.803       .  S
S407        H410   1.406       .  S
S408        H409   1.406       .  S
C413        C414   1.402       .  A
C413        C418   1.416       .  A
C414        C415   1.397       .  A
C414        H423   1.084       .  S
C415        C416   1.415       .  A
C415        S419   1.803       .  S
C416        C417   1.405       .  A
C417        C418   1.404       .  A
C417        H424   1.084       .  S
C418        S420   1.802       .  S
S419        H422   1.406       .  S
S420        H421   1.405       .  S
C425        C426   1.393       .  A
C425        C430   1.412       .  A
C426        C427   1.386   1_556  A
C426        H435   1.072       .  S
C427        C428   1.422       .  A
C427        S431   1.815       .  S
C428        C429   1.415   1_554  A
C429        C430   1.417       .  A
C429        H436   1.083   1_556  S
C430        S432   1.803       .  S
S431        H434   1.406   1_554  S
S432        H433   1.404       .  S
C437        C438   1.402   1_554  A
C437        C442   1.410       .  A
C438        C439   1.398       .  A
C438        H447   1.084       .  S
C439        C440   1.417       .  A
C439        S443   1.804       .  S
C440        C441   1.405       .  A
C441        C442   1.397   1_556  A
C441        H448   1.076       .  S
C442        S444   1.806       .  S
S443        H446   1.403       .  S
S444        H445   1.407       .  S
C449        C450   1.405       .  A
C449        C454   1.408       .  A
C450        C451   1.399   1_556  A
C450        H459   1.082       .  S
C451        C452   1.412       .  A
C451        S455   1.805       .  S
C452        C453   1.408   1_554  A
C453        C454   1.399       .  A
C453        H460   1.084       .  S
C454        S456   1.800       .  S
S455        H458   1.407       .  S
S456        H457   1.406       .  S
C461        C462   1.399       .  A
C461        C466   1.412       .  A
C462       C1391   1.392   1_554  A
C462        H471   1.083       .  S
C463        C464   1.414       .  A
C463       C1390   1.392   1_546  A
C463        S467   1.811       .  S
C464        C465   1.407       .  A
C465       C1394   1.407   1_546  A
C465        H472   1.084       .  S
C466       C1393   1.407   1_554  A
C466        S468   1.803       .  S
S467        H470   1.406   1_545  S
S468        H469   1.401       .  S
C473        C474   1.410       .  A
C473        C478   1.425       .  A
C474        C475   1.407       .  A
C474        H483   1.083       .  S
C475        C476   1.409       .  A
C475        S479   1.804       .  S
C476        C477   1.392       .  A
C477        C478   1.388       .  A
C477        H484   1.085       .  S
C478        S480   1.803       .  S
S479        H482   1.405       .  S
S480        H481   1.408       .  S
C485        C486   1.398       .  A
C485        C490   1.412       .  A
C486        C487   1.400       .  A
C486        H495   1.084       .  S
C487        C488   1.421       .  A
C487        S491   1.800       .  S
C488        C489   1.405       .  A
C489        C490   1.398       .  A
C489        H496   1.084       .  S
C490        S492   1.804       .  S
S491        H494   1.407       .  S
S492        H493   1.403       .  S
C497        C498   1.408       .  A
C497        C502   1.412       .  A
C498        C499   1.418       .  A
C498        H507   1.083       .  S
C499        C500   1.420   1_556  A
C499        S503   1.798       .  S
C500        C501   1.399       .  A
C501        C502   1.383   1_554  A
C501        H508   1.082       .  S
C502        S504   1.796       .  S
S503        H506   1.408   1_556  S
S504        H505   1.407   1_556  S
C509        C510   1.408   1_554  A
C509        C514   1.415   1_554  A
C510        C511   1.411       .  A
C510        H519   1.083   1_556  S
C511        C512   1.416       .  A
C511        S515   1.804       .  S
C512        C513   1.399       .  A
C513        C514   1.387       .  A
C513        H520   1.085       .  S
C514        S516   1.799   1_556  S
S515        H518   1.400       .  S
S516        H517   1.407       .  S
C521        C522   1.400       .  A
C521        C526   1.412       .  A
C522        C523   1.387       .  A
C522        H531   1.085       .  S
C523        C524   1.414       .  A
C523        S527   1.808       .  S
C524        C525   1.406       .  A
C525        C526   1.402       .  A
C525        H532   1.083       .  S
C526        S528   1.801       .  S
S527        H530   1.402       .  S
S528        H529   1.401       .  S
C533        C534   1.397   1_545  A
C533        C538   1.417       .  A
C534       C1463   1.381       .  A
C534        H543   1.082       .  S
C535        C536   1.418   1_556  A
C535       C1462   1.381       .  A
C535        S539   1.802   1_556  S
C536        C537   1.410       .  A
C537       C1466   1.419   1_554  A
C537        H544   1.083       .  S
C538       C1465   1.419   1_546  A
C538        S540   1.799       .  S
S539        H542   1.408   1_554  S
S540        H541   1.407       .  S
C545        C546   1.402       .  A
C545        C550   1.411   1_554  A
C546        C547   1.396   1_554  A
C546        H555   1.084       .  S
C547        C548   1.414       .  A
C547        S551   1.798       .  S
C548        C549   1.406       .  A
C549        C550   1.394       .  A
C549        H556   1.084       .  S
C550        S552   1.802       .  S
S551        H554   1.407       .  S
S552        H553   1.407       .  S
C557        C558   1.404       .  A
C557        C562   1.413       .  A
C558        C559   1.408       .  A
C558        H567   1.084       .  S
C559        C560   1.419       .  A
C559        S563   1.799       .  S
C560       C1106   1.495       .  S
C560        C561   1.406       .  A
C561        C562   1.393       .  A
C561        H568   1.084       .  S
C562        S564   1.803       .  S
S563       H1494   1.407       .  S
S564        H565   1.392       .  S
H566       S1491   1.407       .  S
C569        C570   1.411       .  A
C569        C574   1.423       .  A
C570        C571   1.405       .  A
C570        H579   1.083       .  S
C571        C572   1.409       .  A
C571        S575   1.805       .  S
C572        C573   1.396       .  A
C573        C574   1.394       .  A
C573        H580   1.085       .  S
C574        S576   1.802       .  S
S575        H578   1.404       .  S
S576        H577   1.408       .  S
C581        C582   1.406       .  A
C581        C586   1.416       .  A
C582        C583   1.407       .  A
C582        H591   1.083       .  S
C583        C584   1.416       .  A
C583        S587   1.801       .  S
C584        C585   1.403       .  A
C585        C586   1.399       .  A
C585        H592   1.084       .  S
C586        S588   1.803       .  S
S587        H590   1.406       .  S
S588        H589   1.407       .  S
C593        C594   1.404       .  A
C593        C598   1.416       .  A
C594        C595   1.403       .  A
C594        H603   1.083       .  S
C595        C596   1.412       .  A
C595        S599   1.802       .  S
C596        C597   1.397       .  A
C597        C598   1.394       .  A
C597        H604   1.084       .  S
C598       S1528   1.801       .  S
S599        H602   1.405       .  S
S600       C1526   1.801       .  S
S600       H1529   1.398       .  S
H601       S1528   1.398       .  S
C605        C606   1.400       .  A
C605        C610   1.411       .  A
C606        C607   1.395       .  A
C606        H615   1.084       .  S
C607        C608   1.413       .  A
C607        S611   1.800       .  S
C608        C609   1.405       .  A
C609        C610   1.403       .  A
C609        H616   1.083       .  S
C610        S612   1.802       .  S
S611        H614   1.407       .  S
S612        H613   1.405       .  S
C617        C618   1.406       .  A
C617        C622   1.417       .  A
C618        C619   1.402       .  A
C618        H627   1.083       .  S
C619        C620   1.411       .  A
C619        S623   1.804       .  S
C620        C621   1.402       .  A
C621        C622   1.400       .  A
C621        H628   1.085       .  S
C622        S624   1.805       .  S
S623        H626   1.407       .  S
S624        H625   1.407       .  S
C629        C630   1.410       .  A
C629        C634   1.425       .  A
C630        C631   1.402       .  A
C630        H639   1.083       .  S
C631        C632   1.407       .  A
C631        S635   1.803       .  S
C632        C633   1.395       .  A
C633        C634   1.397       .  A
C633        H640   1.083       .  S
C634        S636   1.812       .  S
S635        H638   1.406       .  S
S636        H637   1.407       .  S
C641        C642   1.398       .  A
C641        C646   1.415       .  A
C642        C643   1.398       .  A
C642        H651   1.083       .  S
C643        C644   1.409       .  A
C643        S647   1.803       .  S
C644        C645   1.402       .  A
C645        C646   1.406       .  A
C645        H652   1.084       .  S
C646        S648   1.804       .  S
S647        H650   1.407       .  S
S648        H649   1.400       .  S
C653        C654   1.403       .  A
C653        C658   1.415       .  A
C654        C655   1.396   1_655  A
C654        H663   1.084       .  S
C655        C656   1.411       .  A
C655       S1587   1.806       .  S
C656        C657   1.402       .  A
C657        C658   1.401   1_455  A
C657        H664   1.084       .  S
C658        S660   1.799       .  S
S659       C1583   1.806       .  S
S659       H1590   1.408       .  S
S660        H661   1.406       .  S
H662       S1587   1.408       .  S
C665        C666   1.403       .  A
C665        C670   1.412       .  A
C666        C667   1.405       .  A
C666        H675   1.081       .  S
C667        C668   1.412       .  A
C667        S671   1.804       .  S
C668        C669   1.398       .  A
C669        C670   1.393       .  A
C669        H676   1.084       .  S
C670        S672   1.799       .  S
S671        H674   1.406       .  S
S672        H673   1.405       .  S
C677        C678   1.407       .  A
C677        C682   1.416       .  A
C678        C679   1.397       .  A
C678        H687   1.084       .  S
C679        C680   1.414       .  A
C679        S683   1.811       .  S
C680        C681   1.402       .  A
C681        C682   1.401       .  A
C681        H688   1.084       .  S
C682        S684   1.797       .  S
S683        H686   1.397       .  S
S684        H685   1.407       .  S
C689        C690   1.403       .  A
C689        C694   1.417       .  A
C690        C691   1.387       .  A
C690        H699   1.082       .  S
C691        C692   1.401       .  A
C691        S695   1.794       .  S
C692       C1040   1.465       .  S
C692        C693   1.402       .  A
C693        C694   1.406       .  A
C693        H700   1.083       .  S
C694        S696   1.798       .  S
S695        H698   1.407       .  S
S696        H697   1.407       .  S
C701        C702   1.404       .  A
C701        C706   1.411       .  A
C702        C703   1.398   1_655  A
C702        H711   1.084       .  S
C703        C704   1.412       .  A
C703        S707   1.807       .  S
C704        C705   1.404       .  A
C705        C706   1.404   1_455  A
C705        H712   1.084       .  S
C706        S708   1.797       .  S
S707        H710   1.405       .  S
S708        H709   1.406       .  S
C713        C714   1.408       .  A
C713        C718   1.415       .  A
C714        C715   1.394       .  A
C714        H723   1.084       .  S
C715        C716   1.414       .  A
C715        S719   1.802       .  S
C716        C717   1.407       .  A
C717        C718   1.399       .  A
C717        H724   1.084       .  S
C718        S720   1.802       .  S
S719        H722   1.408       .  S
S720        H721   1.405       .  S
C725        C726   1.405       .  A
C725        C730   1.407       .  A
C726        C727   1.398       .  A
C726        H735   1.080       .  S
C727        C728   1.410       .  A
C727        S731   1.805       .  S
C728        C729   1.410       .  A
C729        C730   1.401       .  A
C729        H736   1.084       .  S
C730        S732   1.803       .  S
S731        H734   1.407       .  S
S732        H733   1.406       .  S
C737        C738   1.402       .  A
C737        C742   1.411       .  A
C738        C739   1.402       .  A
C738        H747   1.084       .  S
C739        C740   1.413       .  A
C739        S743   1.803       .  S
C740        C741   1.397       .  A
C741        C742   1.388       .  A
C741        H748   1.084       .  S
C742        S744   1.810       .  S
S743        H746   1.397       .  S
S744        H745   1.407       .  S
C749        C750   1.402       .  A
C749        C754   1.415       .  A
C750        C751   1.400       .  A
C750        H759   1.084       .  S
C751        C752   1.415       .  A
C751       S1683   1.801       .  S
C752        C753   1.402       .  A
C753        C754   1.401       .  A
C753        H760   1.082       .  S
C754        S756   1.798       .  S
S755       C1679   1.801       .  S
S755       H1686   1.407       .  S
S756        H757   1.397       .  S
H758       S1683   1.407       .  S
C761        C762   1.409       .  A
C761        C766   1.413       .  A
C762        C763   1.404       .  A
C762        H771   1.084       .  S
C763        C764   1.410       .  A
C763        S767   1.802       .  S
C764        C765   1.405       .  A
C765        C766   1.399       .  A
C765        H772   1.079       .  S
C766        S768   1.806       .  S
S767        H770   1.407       .  S
S768        H769   1.407       .  S
C773        C778   1.417       .  A
C773       C1702   1.405       .  A
C774        C775   1.397       .  A
C774       C1701   1.405   1_545  A
C774        H783   1.084       .  S
C775        C776   1.413       .  A
C775        S779   1.800       .  S
C776       C1705   1.404   1_545  A
C777        C778   1.398       .  A
C777       C1704   1.404       .  A
C777        H784   1.084       .  S
C778        S780   1.802       .  S
S779        H782   1.407       .  S
S780        H781   1.396       .  S
C785        C786   1.402       .  A
C785        C790   1.414       .  A
C786        C787   1.397       .  A
C786        H795   1.084       .  S
C787        C788   1.414       .  A
C787        S791   1.803       .  S
C788        C789   1.403       .  A
C789        C790   1.399       .  A
C789        H796   1.084       .  S
C790        S792   1.803       .  S
S791        H794   1.406       .  S
S792       H1721   1.407       .  S
H793       S1720   1.407   1_545  S
C797        C798   1.399       .  A
C797        C802   1.410       .  A
C798        C799   1.394       .  A
C798        H807   1.077       .  S
C799        C800   1.416       .  A
C799        S803   1.805       .  S
C800        C801   1.406       .  A
C801        C802   1.402       .  A
C801        H808   1.079       .  S
C802        S804   1.802       .  S
S803        H806   1.408       .  S
S804        H805   1.403       .  S
C809        C810   1.404       .  A
C809        C814   1.410       .  A
C810        C811   1.407       .  A
C810        H819   1.084       .  S
C811        C812   1.414       .  A
C811        S815   1.807       .  S
C812        C813   1.399       .  A
C813        C814   1.393       .  A
C813        H820   1.085       .  S
C814        S816   1.799       .  S
S815        H818   1.403       .  S
S816        H817   1.405       .  S
C821        C822   1.408       .  A
C821        C826   1.414       .  A
C822        C823   1.419       .  A
C822        H831   1.083       .  S
C823        C824   1.422       .  A
C823        S827   1.798       .  S
C824        C825   1.398       .  A
C825        C826   1.379       .  A
C825        H832   1.084       .  S
C826        S828   1.791       .  S
S827        H830   1.407       .  S
S828        H829   1.406       .  S
C833        C834   1.405       .  A
C833        C838   1.415       .  A
C834        C835   1.407       .  A
C834        H843   1.083       .  S
C835        C836   1.412       .  A
C835        S839   1.802       .  S
C836        C837   1.396       .  A
C837        C838   1.386       .  A
C837        H844   1.083       .  S
C838        S840   1.808       .  S
S839        H842   1.406       .  S
S840        H841   1.407       .  S
C845        C846   1.400       .  A
C845        C850   1.409       .  A
C846        C847   1.395   1_655  A
C846        H855   1.085       .  S
C847        C848   1.412       .  A
C847        S851   1.806       .  S
C848        C849   1.403       .  A
C849        C850   1.399   1_455  A
C849        H856   1.084       .  S
C850        S852   1.801       .  S
S851        H854   1.402       .  S
S852        H853   1.403       .  S
C857        C858   1.402       .  A
C857        C862   1.408       .  A
C858        C859   1.403       .  A
C858        H867   1.080       .  S
C859        C860   1.413       .  A
C859       S1791   1.806   1_545  S
C860        C861   1.401       .  A
C861        C862   1.393       .  A
C861        H868   1.085       .  S
C862        S864   1.800       .  S
S863       C1787   1.806       .  S
S863       H1794   1.403       .  S
S864        H865   1.404       .  S
H866       S1791   1.403       .  S
C869        C870   1.408   1_565  A
C869        C874   1.417       .  A
C870       C1799   1.404   1_545  A
C870        H879   1.083       .  S
C871        C872   1.409       .  A
C871       C1798   1.404       .  A
C871        S875   1.796       .  S
C872        C873   1.400       .  A
C873       C1802   1.400       .  A
C873        H880   1.079       .  S
C874       C1801   1.400       .  A
C874        S876   1.812       .  S
S875        H878   1.407       .  S
S876        H877   1.404       .  S
C881        C882   1.403       .  A
C881        C886   1.412       .  A
C882        C883   1.397       .  A
C882        H891   1.083       .  S
C883        C884   1.415       .  A
C883        S887   1.801       .  S
C884        C885   1.407       .  A
C885        C886   1.398       .  A
C885        H892   1.084       .  S
C886        S888   1.802       .  S
S887        H890   1.403       .  S
S888        H889   1.402       .  S
C893        C930   1.495       .  S
C893        C894   1.405       .  A
C893        C898   1.420       .  A
C894        C895   1.393       .  A
C894        H903   1.084       .  S
C895        C896   1.416       .  A
C895        S899   1.806       .  S
C896        C897   1.403       .  A
C897        C898   1.407       .  A
C897        H904   1.084       .  S
C898        S900   1.797       .  S
S899        H902   1.388       .  S
S900       H1829   1.407       .  S
H901       S1828   1.407       .  S
C905        C906   1.411       .  A
C905        C910   1.421       .  A
C906        C907   1.407       .  A
C906        H915   1.083       .  S
C907        C908   1.410       .  A
C907        S911   1.803       .  S
C908        C909   1.397       .  A
C909        C910   1.393       .  A
C909        H916   1.084       .  S
C910        S912   1.801       .  S
S911        H914   1.405       .  S
S912        H913   1.406       .  S
C917        C918   1.406       .  A
C917        C922   1.415       .  A
C918        C919   1.407   1_655  A
C918        H927   1.083       .  S
C919        C920   1.417       .  A
C919        S923   1.797       .  S
C920        C921   1.402       .  A
C921        C922   1.391   1_455  A
C921        H928   1.084       .  S
C922        S924   1.803       .  S
S923        H926   1.407       .  S
S924        H925   1.407       .  S
O929        C944   1.256       .  A
O929       Al937   1.875       .  S
C930        O940   1.265       .  A
C930        O931   1.269       .  A
O931       Al933   1.918       .  S
O932        C934   1.254       .  A
O932       Al933   1.871       .  S
Al933       O941   1.877       .  S
Al933       O943   1.928       .  S
Al933       O942   1.766       .  S
C934        O947   1.266       .  A
C934       C1797   1.489       .  S
O935        C945   1.260       .  A
O935       Al937   1.896       .  S
O936        C949   1.269       .  A
O936       Al946   1.915       .  S
Al937       O950   1.925       .  S
Al937       O947   1.939       .  S
Al937       O942   1.772       .  S
O938        C945   1.263       .  A
O938       Al946   1.927       .  S
O939        C948   1.265       .  A
O939       Al946   1.947       .  S
O940       Al946   1.913       .  S
O941        C948   1.255       .  A
O942       Al946   1.784       .  S
O943        C944   1.263       .  A
C944       C1809   1.473       .  S
C945       C1785   1.467       .  S
C948       C1845   1.483       .  S
C949        O950   1.267       .  A
C949       C1833   1.491       .  S
O951        C966   1.253       .  A
O951       Al959   1.870       .  S
C952        O962   1.269       .  A
C952        O953   1.272       .  A
C952       C1836   1.469       .  S
O953       Al955   1.929       .  S
O954        C956   1.254       .  A
O954       Al955   1.886       .  S
Al955       O963   1.872       .  S
Al955       O965   1.916       .  S
Al955       O964   1.769       .  S
C956        O969   1.267       .  A
C956       C1749   1.488       .  S
O957        C967   1.258       .  A
O957       Al959   1.905       .  S
O958        C971   1.267       .  A
O958       Al968   1.900       .  S
Al959       O972   1.944       .  S
Al959       O969   1.949       .  S
Al959       O964   1.778       .  S
O960        C967   1.259       .  A
O960       Al968   1.921       .  S
O961        C970   1.257       .  A
O961       Al968   1.927       .  S
O962       Al968   1.901       .  S
O963        C970   1.250       .  A
O964       Al968   1.792       .  S
O965        C966   1.262       .  A
C966       C1761   1.471       .  S
C967       C1737   1.471       .  S
C970       C1773   1.463       .  S
C971        O972   1.273       .  A
C971       C1824   1.476       .  S
O973        C988   1.261       .  A
O973       Al981   1.887       .  S
C974        O984   1.261       .  A
C974        O975   1.265       .  A
C974       C1725   1.470       .  S
O975       Al977   1.924       .  S
O976        C978   1.259       .  A
O976       Al977   1.888       .  S
Al977       O985   1.872       .  S
Al977       O987   1.925       .  S
Al977       O986   1.775       .  S
C978        O991   1.265       .  A
C978       C1689   1.484       .  S
O979        C989   1.264       .  A
O979       Al981   1.901       .  S
O980       Al990   1.902       .  S
Al981       O994   1.914       .  S
Al981       O991   1.932       .  S
Al981       O986   1.780       .  S
O982        C989   1.267       .  A
O982       Al990   1.933       .  S
O983        C992   1.263       .  A
O983       Al990   1.939       .  S
O984       Al990   1.890       .  S
O985        C992   1.256       .  A
O986       Al990   1.781       .  S
O987        C988   1.263       .  A
C988       C1704   1.478       .  S
C989       C1677   1.480       .  S
C992       C1848   1.485       .  S
C993       C1713   1.472   1_545  S
O995       C1010   1.260       .  A
O995      Al1003   1.882       .  S
C996       O1006   1.262       .  A
C996        O997   1.266       .  A
C996       C1716   1.474       .  S
O997       Al999   1.921       .  S
O998       C1000   1.261       .  A
O998       Al999   1.905       .  S
Al999      O1007   1.892       .  S
Al999      O1009   1.918       .  S
Al999      O1008   1.775       .  S
C1000      O1013   1.260       .  A
C1000      C1653   1.474       .  S
O1001      C1011   1.263       .  A
O1001     Al1003   1.900       .  S
O1002      C1015   1.265       .  A
O1002     Al1012   1.912       .  S
Al1003     O1016   1.903       .  S
Al1003     O1013   1.913       .  S
Al1003     O1008   1.775       .  S
O1004      C1011   1.265       .  A
O1004     Al1012   1.908       .  S
O1005      C1014   1.259       .  A
O1005     Al1012   1.912       .  S
O1006     Al1012   1.888       .  S
O1007      C1014   1.258       .  A
O1008     Al1012   1.779       .  S
O1009      C1010   1.263       .  A
C1010      C1668   1.461       .  S
C1011      C1641   1.486       .  S
C1014      C1776   1.464       .  S
C1015      O1016   1.262       .  A
C1015      C1728   1.480       .  S
O1017      C1032   1.260       .  A
O1017     Al1025   1.879       .  S
C1018      O1028   1.262       .  A
C1018      O1019   1.264       .  A
C1018      C1605   1.489       .  S
O1019     Al1021   1.909       .  S
O1020      C1022   1.256       .  A
O1020     Al1021   1.878       .  S
Al1021     O1029   1.875       .  S
Al1021     O1031   1.941       .  S
Al1021     O1030   1.757       .  S
C1022      O1035   1.263       .  A
C1022      C1752   1.497       .  S
O1023      C1033   1.264       .  A
O1023     Al1025   1.895       .  S
O1024      C1037   1.262       .  A
O1024     Al1034   1.906       .  S
Al1025     O1038   1.906       .  S
Al1025     O1035   1.960       .  S
Al1025     O1030   1.780       .  S
O1026      C1033   1.271       .  A
O1026     Al1034   1.947       .  S
O1027      C1036   1.269       .  A
O1027     Al1034   1.949       .  S
O1028     Al1034   1.907       .  S
O1029      C1036   1.257       .  A
O1030     Al1034   1.776       .  S
O1031      C1032   1.268       .  A
C1032      C1812   1.480       .  S
C1033      C1593   1.473       .  S
C1036      C1629   1.478       .  S
C1037      O1038   1.264       .  A
C1037      C1617   1.481       .  S
O1039      C1054   1.263       .  A
O1039     Al1047   1.883       .  S
C1040      O1050   1.259   1_545  A
C1040      O1041   1.266   1_545  A
O1041     Al1043   1.914       .  S
O1042      C1044   1.258       .  A
O1042     Al1043   1.907       .  S
Al1043     O1051   1.882       .  S
Al1043     O1053   1.920       .  S
Al1043     O1052   1.779       .  S
C1044      O1057   1.258       .  A
C1044      C1800   1.480       .  S
O1045      C1055   1.265       .  A
O1045     Al1047   1.900       .  S
O1046      C1059   1.259       .  A
O1046     Al1056   1.901       .  S
Al1047     O1060   1.918       .  S
Al1047     O1057   1.925       .  S
Al1047     O1052   1.784       .  S
O1048      C1055   1.267       .  A
O1048     Al1056   1.928       .  S
O1049      C1058   1.258       .  A
O1049     Al1056   1.912       .  S
O1050     Al1056   1.886       .  S
O1051      C1058   1.256       .  A
O1052     Al1056   1.791       .  S
O1053      C1054   1.265       .  A
C1054      C1764   1.465       .  S
C1055      C1569   1.469       .  S
C1058      C1581   1.477       .  S
C1059      O1060   1.261       .  A
C1059      C1608   1.468       .  S
O1061      C1076   1.257       .  A
O1061     Al1069   1.876       .  S
C1062      O1072   1.261       .  A
C1062      O1063   1.266       .  A
C1062      C1560   1.464       .  S
O1063     Al1065   1.928       .  S
O1064      C1066   1.260       .  A
O1064     Al1065   1.902       .  S
Al1065     O1073   1.884       .  S
Al1065     O1075   1.927       .  S
Al1065     O1074   1.775       .  S
C1066      O1079   1.264       .  A
C1066      C1692   1.480       .  S
O1067      C1077   1.260       .  A
O1067     Al1069   1.886       .  S
O1068      C1081   1.265       .  A
O1068     Al1078   1.910       .  S
Al1069     O1082   1.921       .  S
Al1069     O1079   1.932       .  S
Al1069     O1074   1.774       .  S
O1070      C1077   1.266       .  A
O1070     Al1078   1.932       .  S
O1071      C1080   1.264       .  A
O1071     Al1078   1.935       .  S
O1072     Al1078   1.887       .  S
O1073      C1080   1.258       .  A
O1074     Al1078   1.778       .  S
O1075      C1076   1.265       .  A
C1076      C1665   1.463       .  S
C1077      C1533   1.470       .  S
C1080      C1632   1.475       .  S
C1081      O1082   1.265       .  A
C1081      C1545   1.484       .  S
O1083      C1098   1.261       .  A
O1083     Al1091   1.883       .  S
C1084      O1094   1.264       .  A
C1084      O1085   1.268       .  A
C1084      C1548   1.475       .  S
O1085     Al1087   1.928       .  S
O1086      C1088   1.259       .  A
O1086     Al1087   1.894       .  S
Al1087     O1095   1.879       .  S
Al1087     O1097   1.921       .  S
Al1087     O1096   1.775       .  S
C1088      O1101   1.259       .  A
C1088      C1656   1.480       .  S
O1089      C1099   1.264       .  A
O1089     Al1091   1.915       .  S
O1090     Al1100   1.915       .  S
Al1091     O1104   1.905       .  S
Al1091     O1101   1.908       .  S
Al1091     O1096   1.777       .  S
O1092      C1099   1.262       .  A
O1092     Al1100   1.911       .  S
O1093      C1102   1.259       .  A
O1093     Al1100   1.922       .  S
O1094     Al1100   1.899       .  S
O1095      C1102   1.253       .  A
O1096     Al1100   1.784       .  S
O1097      C1098   1.264       .  A
C1098      C1701   1.479       .  S
C1099      C1521   1.476       .  S
C1102      C1584   1.471       .  S
C1103      C1557   1.489       .  S
O1105      C1120   1.260       .  A
O1105     Al1113   1.872       .  S
C1106      O1116   1.264       .  A
C1106      O1107   1.266       .  A
O1107     Al1109   1.910       .  S
O1108      C1110   1.256       .  A
O1108     Al1109   1.886       .  S
Al1109     O1117   1.884       .  S
Al1109     O1119   1.938       .  S
Al1109     O1118   1.751       .  S
C1110      O1123   1.265       .  A
C1110      C1461   1.491       .  S
O1111      C1121   1.265       .  A
O1111     Al1113   1.900       .  S
O1112      C1125   1.269       .  A
O1112     Al1122   1.915       .  S
Al1113     O1126   1.926       .  S
Al1113     O1123   1.965       .  S
Al1113     O1118   1.780       .  S
O1114      C1121   1.268       .  A
O1114     Al1122   1.924       .  S
O1115      C1124   1.268       .  A
O1115     Al1122   1.952       .  S
O1116     Al1122   1.918       .  S
O1117      C1124   1.258       .  A
O1118     Al1122   1.769       .  S
O1119      C1120   1.267       .  A
C1120      C1476   1.477       .  S
C1121      C1788   1.466       .  S
C1124      C1512   1.485       .  S
C1125      O1126   1.266       .  A
C1125      C1497   1.493       .  S
O1127      C1142   1.257       .  A
O1127     Al1135   1.882       .  S
C1128      O1138   1.265       .  A
C1128      O1129   1.270       .  A
C1128      C1500   1.466       .  S
O1129     Al1131   1.930       .  S
O1130      C1132   1.256       .  A
O1130     Al1131   1.892       .  S
Al1131     O1139   1.860       .  S
Al1131     O1141   1.919       .  S
Al1131     O1140   1.767       .  S
C1132      O1145   1.268       .  A
C1132      C1425   1.486       .  S
O1133      C1143   1.262       .  A
O1133     Al1135   1.908       .  S
O1134      C1147   1.265       .  A
O1134     Al1144   1.897       .  S
Al1135     O1148   1.943       .  S
Al1135     O1145   1.954       .  S
Al1135     O1140   1.780       .  S
O1136      C1143   1.261       .  A
O1136     Al1144   1.912       .  S
O1137      C1146   1.259       .  A
O1137     Al1144   1.930       .  S
O1138     Al1144   1.894       .  S
O1139      C1146   1.251       .  A
O1140     Al1144   1.790       .  S
O1141      C1142   1.263       .  A
C1142      C1440   1.475       .  S
C1143      C1740   1.467       .  S
C1146      C1449   1.466       .  S
C1147      O1148   1.271       .  A
C1147      C1485   1.477       .  S
O1149      C1164   1.261       .  A
O1149     Al1157   1.880       .  S
C1150      O1160   1.264       .  A
C1150      O1151   1.268       .  A
C1150      C1413   1.468       .  S
O1151     Al1153   1.923       .  S
O1152      C1154   1.256       .  A
O1152     Al1153   1.895       .  S
Al1153     O1161   1.890       .  S
Al1153     O1163   1.941       .  S
Al1153     O1162   1.773       .  S
C1154      O1167   1.257       .  A
C1154      C1377   1.475       .  S
O1155      C1165   1.265       .  A
O1155     Al1157   1.904       .  S
O1156     Al1166   1.926       .  S
Al1157     O1170   1.907       .  S
Al1157     O1167   1.914       .  S
Al1157     O1162   1.776       .  S
O1158      C1165   1.268       .  A
O1158     Al1166   1.935       .  S
O1159      C1168   1.262       .  A
O1159     Al1166   1.934       .  S
O1160     Al1166   1.896       .  S
O1161      C1168   1.256       .  A
O1162     Al1166   1.780       .  S
O1163      C1164   1.270       .  A
C1164      C1392   1.475       .  S
C1165      C1680   1.480       .  S
C1168      C1509   1.488       .  S
C1169      C1401   1.488   1_545  S
O1171      C1186   1.259       .  A
O1171     Al1179   1.883       .  S
C1172      O1182   1.261       .  A
C1172      O1173   1.265       .  A
C1172      C1404   1.462       .  S
O1173     Al1175   1.921       .  S
O1174      C1176   1.255       .  A
O1174     Al1175   1.891       .  S
Al1175     O1183   1.855       .  S
Al1175     O1185   1.935       .  S
Al1175     O1184   1.761       .  S
C1176      O1189   1.266       .  A
C1176      C1353   1.481       .  S
O1177      C1187   1.263       .  A
O1177     Al1179   1.897       .  S
O1178      C1191   1.260       .  A
O1178     Al1188   1.889       .  S
Al1179     O1192   1.938       .  S
Al1179     O1189   1.958       .  S
Al1179     O1184   1.778       .  S
O1180      C1187   1.267       .  A
O1180     Al1188   1.921       .  S
O1181      C1190   1.263       .  A
O1181     Al1188   1.928       .  S
O1182     Al1188   1.891       .  S
O1183      C1190   1.253       .  A
O1184     Al1188   1.779       .  S
O1185      C1186   1.268       .  A
C1186      C1368   1.482       .  S
C1187      C1644   1.483       .  S
C1190      C1452   1.469       .  S
C1191      O1192   1.271       .  A
C1191      C1416   1.487       .  S
O1193      C1208   1.259       .  A
O1193     Al1201   1.884       .  S
C1194      O1204   1.267       .  A
C1194      O1195   1.258       .  A
C1194      C1317   1.496       .  S
O1195     Al1197   1.900       .  S
O1196      C1198   1.258       .  A
O1196     Al1197   1.869       .  S
Al1197     O1205   1.882       .  S
Al1197     O1207   1.915       .  S
Al1197     O1206   1.754       .  S
C1198      O1211   1.267       .  A
C1198      C1428   1.497       .  S
O1199      C1209   1.262       .  A
O1199     Al1201   1.902       .  S
O1200      C1213   1.268       .  A
O1200     Al1210   1.909       .  S
Al1201     O1214   1.927       .  S
Al1201     O1211   1.965       .  S
Al1201     O1206   1.778       .  S
O1202      C1209   1.265       .  A
O1202     Al1210   1.920       .  S
O1203      C1212   1.269       .  A
O1203     Al1210   1.948       .  S
O1204     Al1210   1.930       .  S
O1205      C1212   1.260       .  A
O1206     Al1210   1.773       .  S
O1207      C1208   1.261       .  A
C1208      C1473   1.469       .  S
C1209      C1596   1.468       .  S
C1212      C1341   1.480       .  S
C1213      O1214   1.268       .  A
C1213      C1329   1.496       .  S
O1215      C1230   1.255       .  A
O1215     Al1223   1.883       .  S
C1216      O1226   1.267   1_545  A
C1216      O1217   1.272   1_545  A
O1217     Al1219   1.945       .  S
O1218      C1220   1.256       .  A
O1218     Al1219   1.883       .  S
Al1219     O1227   1.870       .  S
Al1219     O1229   1.932       .  S
Al1219     O1228   1.761       .  S
C1220      O1233   1.270       .  A
C1220      C1464   1.490       .  S
O1221      C1231   1.262       .  A
O1221     Al1223   1.913       .  S
O1222      C1235   1.266       .  A
O1222     Al1232   1.895       .  S
Al1223     O1236   1.947       .  S
Al1223     O1233   1.966       .  S
Al1223     O1228   1.775       .  S
O1224      C1231   1.263       .  A
O1224     Al1232   1.923       .  S
O1225      C1234   1.262       .  A
O1225     Al1232   1.943       .  S
O1226     Al1232   1.897       .  S
O1227      C1234   1.251       .  A
O1228     Al1232   1.783       .  S
O1229      C1230   1.263       .  A
C1230      C1437   1.483       .  S
C1231      C1572   1.473       .  S
C1234      C1305   1.464       .  S
C1235      O1236   1.274       .  A
C1235      C1320   1.472       .  S
O1237      C1252   1.261       .  A
O1237     Al1245   1.881       .  S
C1238      O1248   1.263       .  A
C1238      O1239   1.265       .  A
C1238      C1293   1.472       .  S
O1239     Al1241   1.918       .  S
O1240      C1242   1.256       .  A
O1240     Al1241   1.891       .  S
Al1241     O1249   1.883       .  S
Al1241     O1251   1.926       .  S
Al1241     O1250   1.776       .  S
C1242      O1255   1.258       .  A
C1242      C1380   1.478       .  S
O1243      C1253   1.263       .  A
O1243     Al1245   1.905       .  S
O1244      C1257   1.268       .  A
O1244     Al1254   1.926       .  S
Al1245     O1258   1.907       .  S
Al1245     O1255   1.910       .  S
Al1245     O1250   1.778       .  S
O1246      C1253   1.265       .  A
O1246     Al1254   1.921       .  S
O1247      C1256   1.262       .  A
O1247     Al1254   1.929       .  S
O1248     Al1254   1.904       .  S
O1249      C1256   1.256       .  A
O1250     Al1254   1.781       .  S
O1251      C1252   1.267       .  A
C1252      C1365   1.470       .  S
C1253      C1536   1.475       .  S
C1256      C1344   1.482       .  S
C1257      O1258   1.261       .  A
C1257      C1281   1.496       .  S
O1259      C1274   1.256       .  A
O1259     Al1267   1.874       .  S
C1260      O1270   1.263       .  A
C1260      O1261   1.266       .  A
C1260      C1284   1.471       .  S
O1261     Al1263   1.938       .  S
O1262      C1264   1.254       .  A
O1262     Al1263   1.879       .  S
Al1263     O1271   1.886       .  S
Al1263     O1273   1.946       .  S
Al1263     O1272   1.762       .  S
C1264      O1277   1.271       .  A
C1264      C1356   1.496       .  S
O1265      C1275   1.262       .  A
O1265     Al1267   1.898       .  S
O1266      C1279   1.268       .  A
O1266     Al1276   1.904       .  S
Al1267     O1280   1.935       .  S
Al1267     O1277   1.971       .  S
Al1267     O1272   1.774       .  S
O1268      C1275   1.263       .  A
O1268     Al1276   1.915       .  S
O1269      C1278   1.265       .  A
O1269     Al1276   1.937       .  S
O1270     Al1276   1.896       .  S
O1271      C1278   1.259       .  A
O1272     Al1276   1.773       .  S
O1273      C1274   1.266       .  A
C1274      C1389   1.469       .  S
C1275      C1524   1.467       .  S
C1278      C1308   1.469       .  S
C1279      O1280   1.271       .  A
C1281      C1282   1.412       .  A
C1281      C1286   1.426       .  A
C1282      C1283   1.408       .  A
C1282      H1291   1.083       .  S
C1283      C1284   1.409       .  A
C1283      S1287   1.803       .  S
C1284      C1285   1.395       .  A
C1285      C1286   1.394       .  A
C1285      H1292   1.085       .  S
C1286      S1288   1.804       .  S
S1287      H1290   1.406       .  S
S1288      H1289   1.405       .  S
C1293      C1294   1.402       .  A
C1293      C1298   1.409       .  A
C1294      C1295   1.402       .  A
C1294      H1303   1.085       .  S
C1295      C1296   1.417       .  A
C1295      S1299   1.804       .  S
C1296      C1297   1.407       .  A
C1297      C1298   1.401       .  A
C1297      H1304   1.081       .  S
C1298      S1300   1.804       .  S
S1299      H1302   1.408       .  S
S1300      H1301   1.406       .  S
C1305      C1306   1.401       .  A
C1305      C1310   1.409       .  A
C1306      C1307   1.395       .  A
C1306      H1315   1.085       .  S
C1307      C1308   1.412       .  A
C1308      C1309   1.406       .  A
C1309      C1310   1.402       .  A
C1309      H1316   1.084       .  S
C1310      S1312   1.804       .  S
S1312      H1313   1.405       .  S
C1317      C1318   1.410       .  A
C1317      C1322   1.426       .  A
C1318      C1319   1.408       .  A
C1318      H1327   1.083       .  S
C1319      C1320   1.411       .  A
C1319      S1323   1.801       .  S
C1320      C1321   1.395       .  A
C1321      C1322   1.393       .  A
C1321      H1328   1.085       .  S
C1322      S1324   1.804       .  S
S1323      H1326   1.405       .  S
S1324      H1325   1.407       .  S
C1329      C1330   1.411       .  A
C1329      C1334   1.422       .  A
C1330      C1331   1.404       .  A
C1330      H1339   1.083       .  S
C1331      C1332   1.409       .  A
C1331      S1335   1.804       .  S
C1332      C1333   1.400       .  A
C1333      C1334   1.400       .  A
C1333      H1340   1.085       .  S
C1334      S1336   1.803       .  S
S1335      H1338   1.406       .  S
S1336      H1337   1.406       .  S
C1341      C1342   1.402       .  A
C1341      C1346   1.416       .  A
C1342      C1343   1.397       .  A
C1342      H1351   1.084       .  S
C1343      C1344   1.415       .  A
C1343      S1347   1.803       .  S
C1344      C1345   1.405       .  A
C1345      C1346   1.404       .  A
C1345      H1352   1.084       .  S
C1346      S1348   1.802       .  S
S1347      H1350   1.406       .  S
S1348      H1349   1.405       .  S
C1353      C1354   1.393       .  A
C1353      C1358   1.412       .  A
C1354      C1355   1.386   1_556  A
C1354      H1363   1.072       .  S
C1355      C1356   1.422       .  A
C1355      S1359   1.815       .  S
C1356      C1357   1.415   1_554  A
C1357      C1358   1.417       .  A
C1357      H1364   1.083   1_556  S
C1358      S1360   1.803       .  S
S1359      H1362   1.406   1_554  S
S1360      H1361   1.404       .  S
C1365      C1366   1.402   1_554  A
C1365      C1370   1.410       .  A
C1366      C1367   1.398       .  A
C1366      H1375   1.084       .  S
C1367      C1368   1.417       .  A
C1367      S1371   1.804       .  S
C1368      C1369   1.405       .  A
C1369      C1370   1.397   1_556  A
C1369      H1376   1.076       .  S
C1370      S1372   1.806       .  S
S1371      H1374   1.403       .  S
S1372      H1373   1.407       .  S
C1377      C1378   1.405       .  A
C1377      C1382   1.408       .  A
C1378      C1379   1.399   1_556  A
C1378      H1387   1.082       .  S
C1379      C1380   1.412       .  A
C1379      S1383   1.805       .  S
C1380      C1381   1.408   1_554  A
C1381      C1382   1.399       .  A
C1381      H1388   1.084       .  S
C1382      S1384   1.800       .  S
S1383      H1386   1.407       .  S
S1384      H1385   1.406       .  S
C1389      C1390   1.399       .  A
C1389      C1394   1.412       .  A
C1390      H1399   1.083       .  S
C1391      C1392   1.414       .  A
C1391      S1395   1.811       .  S
C1392      C1393   1.407       .  A
C1393      H1400   1.084       .  S
C1394      S1396   1.803       .  S
S1395      H1398   1.406       .  S
S1396      H1397   1.401       .  S
C1401      C1402   1.410       .  A
C1401      C1406   1.425       .  A
C1402      C1403   1.407       .  A
C1402      H1411   1.083       .  S
C1403      C1404   1.409       .  A
C1403      S1407   1.804       .  S
C1404      C1405   1.392       .  A
C1405      C1406   1.388       .  A
C1405      H1412   1.085       .  S
C1406      S1408   1.803       .  S
S1407      H1410   1.405       .  S
S1408      H1409   1.408       .  S
C1413      C1414   1.398       .  A
C1413      C1418   1.412       .  A
C1414      C1415   1.400       .  A
C1414      H1423   1.084       .  S
C1415      C1416   1.421       .  A
C1415      S1419   1.800       .  S
C1416      C1417   1.405       .  A
C1417      C1418   1.398       .  A
C1417      H1424   1.084       .  S
C1418      S1420   1.804       .  S
S1419      H1422   1.407       .  S
S1420      H1421   1.403       .  S
C1425      C1426   1.408       .  A
C1425      C1430   1.412       .  A
C1426      C1427   1.418       .  A
C1426      H1435   1.083       .  S
C1427      C1428   1.420   1_556  A
C1427      S1431   1.798       .  S
C1428      C1429   1.399       .  A
C1429      C1430   1.383   1_554  A
C1429      H1436   1.082       .  S
C1430      S1432   1.796       .  S
S1431      H1434   1.408   1_556  S
S1432      H1433   1.407   1_556  S
C1437      C1438   1.408   1_554  A
C1437      C1442   1.415   1_554  A
C1438      C1439   1.411       .  A
C1438      H1447   1.083   1_556  S
C1439      C1440   1.416       .  A
C1439      S1443   1.804       .  S
C1440      C1441   1.399       .  A
C1441      C1442   1.387       .  A
C1441      H1448   1.085       .  S
C1442      S1444   1.799   1_556  S
S1443      H1446   1.400       .  S
S1444      H1445   1.407       .  S
C1449      C1450   1.400       .  A
C1449      C1454   1.412       .  A
C1450      C1451   1.387       .  A
C1450      H1459   1.085       .  S
C1451      C1452   1.414       .  A
C1451      S1455   1.808       .  S
C1452      C1453   1.406       .  A
C1453      C1454   1.402       .  A
C1453      H1460   1.083       .  S
C1454      S1456   1.801       .  S
S1455      H1458   1.402       .  S
S1456      H1457   1.401       .  S
C1461      C1462   1.397       .  A
C1461      C1466   1.417       .  A
C1462      H1471   1.082       .  S
C1463      C1464   1.418   1_556  A
C1463      S1467   1.802   1_556  S
C1464      C1465   1.410       .  A
C1465      H1472   1.083       .  S
C1466      S1468   1.799       .  S
S1467      H1470   1.408   1_554  S
S1468      H1469   1.407       .  S
C1473      C1474   1.402       .  A
C1473      C1478   1.411   1_554  A
C1474      C1475   1.396   1_554  A
C1474      H1483   1.084       .  S
C1475      C1476   1.414       .  A
C1475      S1479   1.798       .  S
C1476      C1477   1.406       .  A
C1477      C1478   1.394       .  A
C1477      H1484   1.084       .  S
C1478      S1480   1.802       .  S
S1479      H1482   1.407       .  S
S1480      H1481   1.407       .  S
C1485      C1486   1.404       .  A
C1485      C1490   1.413       .  A
C1486      C1487   1.408       .  A
C1486      H1495   1.084       .  S
C1487      C1488   1.419       .  A
C1487      S1491   1.799       .  S
C1488      C1489   1.406       .  A
C1489      C1490   1.393       .  A
C1489      H1496   1.084       .  S
C1490      S1492   1.803       .  S
S1492      H1493   1.392       .  S
C1497      C1498   1.411       .  A
C1497      C1502   1.423       .  A
C1498      C1499   1.405       .  A
C1498      H1507   1.083       .  S
C1499      C1500   1.409       .  A
C1499      S1503   1.805       .  S
C1500      C1501   1.396       .  A
C1501      C1502   1.394       .  A
C1501      H1508   1.085       .  S
C1502      S1504   1.802       .  S
S1503      H1506   1.404       .  S
S1504      H1505   1.408       .  S
C1509      C1510   1.406       .  A
C1509      C1514   1.416       .  A
C1510      C1511   1.407       .  A
C1510      H1519   1.083       .  S
C1511      C1512   1.416       .  A
C1511      S1515   1.801       .  S
C1512      C1513   1.403       .  A
C1513      C1514   1.399       .  A
C1513      H1520   1.084       .  S
C1514      S1516   1.803       .  S
S1515      H1518   1.406       .  S
S1516      H1517   1.407       .  S
C1521      C1522   1.404       .  A
C1521      C1526   1.416       .  A
C1522      C1523   1.403       .  A
C1522      H1531   1.083       .  S
C1523      C1524   1.412       .  A
C1523      S1527   1.802       .  S
C1524      C1525   1.397       .  A
C1525      C1526   1.394       .  A
C1525      H1532   1.084       .  S
S1527      H1530   1.405       .  S
C1533      C1534   1.400       .  A
C1533      C1538   1.411       .  A
C1534      C1535   1.395       .  A
C1534      H1543   1.084       .  S
C1535      C1536   1.413       .  A
C1535      S1539   1.800       .  S
C1536      C1537   1.405       .  A
C1537      C1538   1.403       .  A
C1537      H1544   1.083       .  S
C1538      S1540   1.802       .  S
S1539      H1542   1.407       .  S
S1540      H1541   1.405       .  S
C1545      C1546   1.406       .  A
C1545      C1550   1.417       .  A
C1546      C1547   1.402       .  A
C1546      H1555   1.083       .  S
C1547      C1548   1.411       .  A
C1547      S1551   1.804       .  S
C1548      C1549   1.402       .  A
C1549      C1550   1.400       .  A
C1549      H1556   1.085       .  S
C1550      S1552   1.805       .  S
S1551      H1554   1.407       .  S
S1552      H1553   1.407       .  S
C1557      C1558   1.410       .  A
C1557      C1562   1.425       .  A
C1558      C1559   1.402       .  A
C1558      H1567   1.083       .  S
C1559      C1560   1.407       .  A
C1559      S1563   1.803       .  S
C1560      C1561   1.395       .  A
C1561      C1562   1.397       .  A
C1561      H1568   1.083       .  S
C1562      S1564   1.812       .  S
S1563      H1566   1.406       .  S
S1564      H1565   1.407       .  S
C1569      C1570   1.398       .  A
C1569      C1574   1.415       .  A
C1570      C1571   1.398       .  A
C1570      H1579   1.083       .  S
C1571      C1572   1.409       .  A
C1571      S1575   1.803       .  S
C1572      C1573   1.402       .  A
C1573      C1574   1.406       .  A
C1573      H1580   1.084       .  S
C1574      S1576   1.804   1_565  S
S1575      H1578   1.407       .  S
S1576      H1577   1.400   1_545  S
C1581      C1582   1.403       .  A
C1581      C1586   1.415       .  A
C1582      C1583   1.396   1_655  A
C1582      H1591   1.084       .  S
C1583      C1584   1.411       .  A
C1584      C1585   1.402       .  A
C1585      C1586   1.401   1_455  A
C1585      H1592   1.084       .  S
C1586      S1588   1.799       .  S
S1588      H1589   1.406       .  S
C1593      C1594   1.403       .  A
C1593      C1598   1.412       .  A
C1594      C1595   1.405       .  A
C1594      H1603   1.081       .  S
C1595      C1596   1.412       .  A
C1595      S1599   1.804       .  S
C1596      C1597   1.398       .  A
C1597      C1598   1.393       .  A
C1597      H1604   1.084       .  S
C1598      S1600   1.799       .  S
S1599      H1602   1.406       .  S
S1600      H1601   1.405       .  S
C1605      C1606   1.407       .  A
C1605      C1610   1.416       .  A
C1606      C1607   1.397       .  A
C1606      H1615   1.084       .  S
C1607      C1608   1.414       .  A
C1607      S1611   1.811       .  S
C1608      C1609   1.402       .  A
C1609      C1610   1.401       .  A
C1609      H1616   1.084       .  S
C1610      S1612   1.797       .  S
S1611      H1614   1.397       .  S
S1612      H1613   1.407       .  S
C1617      C1618   1.403       .  A
C1617      C1622   1.417       .  A
C1618      C1619   1.387       .  A
C1618      H1627   1.082       .  S
C1619      C1620   1.401       .  A
C1619      S1623   1.794       .  S
C1620      C1621   1.402       .  A
C1621      C1622   1.406       .  A
C1621      H1628   1.083       .  S
C1622      S1624   1.798       .  S
S1623      H1626   1.407       .  S
S1624      H1625   1.407       .  S
C1629      C1630   1.404       .  A
C1629      C1634   1.411       .  A
C1630      C1631   1.398   1_655  A
C1630      H1639   1.084       .  S
C1631      C1632   1.412       .  A
C1631      S1635   1.807       .  S
C1632      C1633   1.404       .  A
C1633      C1634   1.404   1_455  A
C1633      H1640   1.084       .  S
C1634      S1636   1.797       .  S
S1635      H1638   1.405       .  S
S1636      H1637   1.406       .  S
C1641      C1642   1.408       .  A
C1641      C1646   1.415       .  A
C1642      C1643   1.394       .  A
C1642      H1651   1.084       .  S
C1643      C1644   1.414       .  A
C1643      S1647   1.802       .  S
C1644      C1645   1.407       .  A
C1645      C1646   1.399       .  A
C1645      H1652   1.084       .  S
C1646      S1648   1.802       .  S
S1647      H1650   1.408       .  S
S1648      H1649   1.405       .  S
C1653      C1654   1.405       .  A
C1653      C1658   1.407       .  A
C1654      C1655   1.398       .  A
C1654      H1663   1.080       .  S
C1655      C1656   1.410       .  A
C1655      S1659   1.805       .  S
C1656      C1657   1.410       .  A
C1657      C1658   1.401       .  A
C1657      H1664   1.084       .  S
C1658      S1660   1.803       .  S
S1659      H1662   1.407       .  S
S1660      H1661   1.406       .  S
C1665      C1666   1.402       .  A
C1665      C1670   1.411       .  A
C1666      C1667   1.402       .  A
C1666      H1675   1.084       .  S
C1667      C1668   1.413       .  A
C1667      S1671   1.803       .  S
C1668      C1669   1.397       .  A
C1669      C1670   1.388       .  A
C1669      H1676   1.084       .  S
C1670      S1672   1.810       .  S
S1671      H1674   1.397       .  S
S1672      H1673   1.407       .  S
C1677      C1678   1.402       .  A
C1677      C1682   1.415       .  A
C1678      C1679   1.400       .  A
C1678      H1687   1.084       .  S
C1679      C1680   1.415       .  A
C1680      C1681   1.402       .  A
C1681      C1682   1.401       .  A
C1681      H1688   1.082       .  S
C1682      S1684   1.798       .  S
S1684      H1685   1.397       .  S
C1689      C1690   1.409       .  A
C1689      C1694   1.413       .  A
C1690      C1691   1.404       .  A
C1690      H1699   1.084       .  S
C1691      C1692   1.410       .  A
C1691      S1695   1.802       .  S
C1692      C1693   1.405       .  A
C1693      C1694   1.399       .  A
C1693      H1700   1.079       .  S
C1694      S1696   1.806       .  S
S1695      H1698   1.407       .  S
S1696      H1697   1.407       .  S
C1701      C1706   1.417       .  A
C1702      C1703   1.397       .  A
C1702      H1711   1.084       .  S
C1703      C1704   1.413       .  A
C1703      S1707   1.800       .  S
C1705      C1706   1.398       .  A
C1705      H1712   1.084       .  S
C1706      S1708   1.802       .  S
S1707      H1710   1.407       .  S
S1708      H1709   1.396       .  S
C1713      C1714   1.402       .  A
C1713      C1718   1.414       .  A
C1714      C1715   1.397       .  A
C1714      H1723   1.084       .  S
C1715      C1716   1.414       .  A
C1715      S1719   1.803       .  S
C1716      C1717   1.403       .  A
C1717      C1718   1.399       .  A
C1717      H1724   1.084       .  S
C1718      S1720   1.803       .  S
S1719      H1722   1.406       .  S
C1725      C1726   1.399       .  A
C1725      C1730   1.410       .  A
C1726      C1727   1.394       .  A
C1726      H1735   1.077       .  S
C1727      C1728   1.416       .  A
C1727      S1731   1.805       .  S
C1728      C1729   1.406       .  A
C1729      C1730   1.402       .  A
C1729      H1736   1.079       .  S
C1730      S1732   1.802       .  S
S1731      H1734   1.408       .  S
S1732      H1733   1.403       .  S
C1737      C1738   1.404       .  A
C1737      C1742   1.410       .  A
C1738      C1739   1.407       .  A
C1738      H1747   1.084       .  S
C1739      C1740   1.414       .  A
C1739      S1743   1.807       .  S
C1740      C1741   1.399       .  A
C1741      C1742   1.393       .  A
C1741      H1748   1.085       .  S
C1742      S1744   1.799       .  S
S1743      H1746   1.403       .  S
S1744      H1745   1.405       .  S
C1749      C1750   1.408       .  A
C1749      C1754   1.414       .  A
C1750      C1751   1.419       .  A
C1750      H1759   1.083       .  S
C1751      C1752   1.422       .  A
C1751      S1755   1.798       .  S
C1752      C1753   1.398       .  A
C1753      C1754   1.379       .  A
C1753      H1760   1.084       .  S
C1754      S1756   1.791       .  S
S1755      H1758   1.407       .  S
S1756      H1757   1.406       .  S
C1761      C1762   1.405       .  A
C1761      C1766   1.415       .  A
C1762      C1763   1.407       .  A
C1762      H1771   1.083       .  S
C1763      C1764   1.412       .  A
C1763      S1767   1.802       .  S
C1764      C1765   1.396       .  A
C1765      C1766   1.386       .  A
C1765      H1772   1.083       .  S
C1766      S1768   1.808       .  S
S1767      H1770   1.406       .  S
S1768      H1769   1.407       .  S
C1773      C1774   1.400       .  A
C1773      C1778   1.409       .  A
C1774      C1775   1.395   1_655  A
C1774      H1783   1.085       .  S
C1775      C1776   1.412       .  A
C1775      S1779   1.806       .  S
C1776      C1777   1.403       .  A
C1777      C1778   1.399   1_455  A
C1777      H1784   1.084       .  S
C1778      S1780   1.801       .  S
S1779      H1782   1.402       .  S
S1780      H1781   1.403       .  S
C1785      C1786   1.402       .  A
C1785      C1790   1.408       .  A
C1786      C1787   1.403       .  A
C1786      H1795   1.080       .  S
C1787      C1788   1.413       .  A
C1788      C1789   1.401       .  A
C1789      C1790   1.393       .  A
C1789      H1796   1.085       .  S
C1790      S1792   1.800       .  S
S1792      H1793   1.404       .  S
C1797      C1798   1.408       .  A
C1797      C1802   1.417       .  A
C1798      H1807   1.083       .  S
C1799      C1800   1.409       .  A
C1799      S1803   1.796   1_565  S
C1800      C1801   1.400       .  A
C1801      H1808   1.079       .  S
C1802      S1804   1.812       .  S
S1803      H1806   1.407   1_545  S
S1804      H1805   1.404       .  S
C1809      C1810   1.403       .  A
C1809      C1814   1.412       .  A
C1810      C1811   1.397       .  A
C1810      H1819   1.083       .  S
C1811      C1812   1.415       .  A
C1811      S1815   1.801       .  S
C1812      C1813   1.407       .  A
C1813      C1814   1.398       .  A
C1813      H1820   1.084       .  S
C1814      S1816   1.802       .  S
S1815      H1818   1.403       .  S
S1816      H1817   1.402       .  S
C1821      C1822   1.405       .  A
C1821      C1826   1.420       .  A
C1822      C1823   1.393       .  A
C1822      H1831   1.084       .  S
C1823      C1824   1.416       .  A
C1823      S1827   1.806       .  S
C1824      C1825   1.403       .  A
C1825      C1826   1.407       .  A
C1825      H1832   1.084       .  S
C1826      S1828   1.797       .  S
S1827      H1830   1.388       .  S
C1833      C1834   1.411       .  A
C1833      C1838   1.421       .  A
C1834      C1835   1.407       .  A
C1834      H1843   1.083       .  S
C1835      C1836   1.410       .  A
C1835      S1839   1.803       .  S
C1836      C1837   1.397       .  A
C1837      C1838   1.393       .  A
C1837      H1844   1.084       .  S
C1838      S1840   1.801       .  S
S1839      H1842   1.405       .  S
S1840      H1841   1.406       .  S
C1845      C1846   1.406       .  A
C1845      C1850   1.415       .  A
C1846      C1847   1.407   1_655  A
C1846      H1855   1.083       .  S
C1847      C1848   1.417       .  A
C1847      S1851   1.797       .  S
C1848      C1849   1.402       .  A
C1849      C1850   1.391   1_455  A
C1849      H1856   1.084       .  S
C1850      S1852   1.803       .  S
S1851      H1854   1.407       .  S
S1852      H1853   1.407       .  S
