geometry optimzed in LAMMPS
_audit_creation_date              2020-12-01 
_audit_creation_method            'lammps2cif' 
_symmetry_space_group_name_H-M    'P1' 
_symmetry_Int_Tables_number       1 
_symmetry_cell_setting            triclinic 
loop_ 
_symmetry_equiv_pos_as_xyz 
  x,y,z 
_cell_length_a                    53.71633179 
_cell_length_b                    53.449301976603 
_cell_length_c                    53.32251713310587 
_cell_angle_alpha                 89.97576870053577 
_cell_angle_beta                  89.90631593838029 
_cell_angle_gamma                 89.74070494877013 
loop_ 
_atom_site_label 
_atom_site_type_symbol 
_atom_site_fract_x 
_atom_site_fract_y 
_atom_site_fract_z 
_atom_site_charge 
C1          C  0.66866719  0.22123502  0.50241879     0.86100
C2          C  0.64982619  0.22053309  0.48083725    -0.54200
C3          C  0.63503671  0.19971601  0.48030935     0.09000
C4          C  0.64041822  0.18147657  0.50224176     0.20000
C5          C  0.65248328  0.21828385  0.52615722    -0.54900
C6          C  0.63777208  0.19741457  0.52624475     0.09100
C7          C  0.68306486  0.19650070  0.50050709    -0.54400
C8          C  0.66846277  0.17572897  0.50052350     0.09700
H9          H  0.64823873  0.23573167  0.46744013     0.14200
H10         H  0.62899515  0.16426893  0.50226515    -0.00100
H11         H  0.65192477  0.23153179  0.54144647     0.14500
H12         H  0.70325910  0.19556558  0.49961805     0.14300
C13         C  0.44765645  0.21306429  0.71728955     0.86100
C14         C  0.47038717  0.21101964  0.69969235    -0.54200
C15         C  0.47095141  0.18976375  0.68536785     0.09000
C16         C  0.44843625  0.17246785  0.68996282     0.20000
C17         C  0.42531458  0.21049680  0.69954728    -0.54900
C18         C  0.42523946  0.18916515  0.68527332     0.09100
C19         C  0.44806743  0.18878331  0.73253184    -0.54400
C20         C  0.44857144  0.16757215  0.71839600     0.09700
H21         H  0.48429732  0.22541379  0.69755547     0.14200
H22         H  0.44906138  0.15486939  0.67904826    -0.00100
H23         H  0.41116371  0.22495989  0.69822839     0.14500
H24         H  0.44806236  0.18848284  0.75290801     0.14300
C25         C  0.22987175  0.21617572  0.49844460     0.86100
C26         C  0.24692641  0.21453283  0.52161705    -0.54200
C27         C  0.26195841  0.19382693  0.52206234     0.09000
C28         C  0.25888701  0.17667488  0.49904243     0.20000
C29         C  0.24772471  0.21443931  0.47601132    -0.54900
C30         C  0.26277450  0.19373541  0.47600296     0.09100
C31         C  0.21589738  0.19123287  0.49847387    -0.54400
C32         C  0.23090601  0.17058893  0.49873555     0.09700
H33         H  0.24735937  0.22803958  0.53669528     0.14200
H34         H  0.27096179  0.15976392  0.49933889    -0.00100
H35         H  0.24812102  0.22838037  0.46119127     0.14500
H36         H  0.19570604  0.19008153  0.49832923     0.14300
C37         C  0.44671244  0.22034190  0.28252513     0.86100
C38         C  0.42543632  0.21634281  0.30152326    -0.54200
C39         C  0.42812123  0.19550668  0.31617499     0.09000
C40         C  0.45211423  0.18049168  0.31060103     0.20000
C41         C  0.47031203  0.22040789  0.29866623    -0.54900
C42         C  0.47354776  0.19960008  0.31332144     0.09100
C43         C  0.44794689  0.19575615  0.26777683    -0.54400
C44         C  0.45069655  0.17489148  0.28226078     0.09700
H45         H  0.40966437  0.22873794  0.30390142     0.14200
H46         H  0.45419483  0.16335248  0.32214907    -0.00100
H47         H  0.48309018  0.23607562  0.29864593     0.14500
H48         H  0.44644180  0.19498010  0.24747407     0.14300
C49         C  0.06689250  0.82013904  0.49888520     0.86100
C50         C  0.06146850  0.80546768  0.52321401    -0.54200
C51         C  0.04089547  0.79058523  0.52192585     0.09000
C52         C  0.02737617  0.79173436  0.49655203     0.20000
C53         C  0.06824394  0.79980682  0.47855261    -0.54900
C54         C  0.04767342  0.78484035  0.47723276     0.09100
C55         C  0.04267236  0.83441982  0.49357529    -0.54400
C56         C  0.02195363  0.81978682  0.49258969     0.09700
H57         H  0.07303397  0.80554431  0.53978571     0.14200
H58         H  0.01056689  0.77975001  0.49580173    -0.00100
H59         H  0.08427835  0.79745237  0.46633418     0.14500
H60         H  0.04193782  0.85466005  0.49176601     0.14300
C61         C  0.06211485  0.60719898  0.71737388     0.86100
C62         C  0.06178799  0.58381876  0.70056448    -0.54200
C63         C  0.04102695  0.58170395  0.68580562     0.09000
C64         C  0.02232024  0.60339709  0.68936710     0.20000
C65         C  0.05834986  0.62910482  0.69888137    -0.54900
C66         C  0.03756463  0.62719127  0.68426202     0.09100
C67         C  0.03767237  0.60612557  0.73217515    -0.54400
C68         C  0.01689510  0.60416481  0.71767546     0.09700
H69         H  0.07678182  0.57013238  0.70050052     0.14200
H70         H  0.00532605  0.60199125  0.67766720    -0.00100
H71         H  0.07114421  0.64443300  0.69640899     0.14500
H72         H  0.03692217  0.60715950  0.75251415     0.14300
C73         C  0.06488817  0.38122188  0.50041254     0.86100
C74         C  0.06244307  0.39803007  0.47702232    -0.54200
C75         C  0.04231017  0.41383475  0.47750851     0.09000
C76         C  0.02617439  0.41119758  0.50128866     0.20000
C77         C  0.06471547  0.39965998  0.52242849    -0.54900
C78         C  0.04473844  0.41563739  0.52292126     0.09100
C79         C  0.03992529  0.36773160  0.50198853    -0.54400
C80         C  0.01965631  0.38312419  0.50242549     0.09700
H81         H  0.07515297  0.39787358  0.46129704     0.14200
H82         H  0.00979711  0.42392693  0.50169085    -0.00100
H83         H  0.07964982  0.40038036  0.53611324     0.14500
H84         H  0.03847665  0.34746007  0.50236140     0.14300
C85         C  0.05980703  0.59941386  0.27768166     0.86100
C86         C  0.05865590  0.62219935  0.29523415    -0.54200
C87         C  0.03948188  0.62177187  0.31218549     0.09000
C88         C  0.02295221  0.59834732  0.30990010     0.20000
C89         C  0.06059650  0.57691411  0.29577462    -0.54900
C90         C  0.04143683  0.57643709  0.31271671     0.09100
C91         C  0.03402508  0.59819825  0.26564648    -0.54400
C92         C  0.01471204  0.59767774  0.28228561     0.09700
H93         H  0.07205281  0.63731966  0.29428012     0.14200
H94         H  0.00737312  0.59778317  0.32357874    -0.00100
H95         H  0.07527738  0.56301255  0.29630040     0.14500
H96         H  0.03134387  0.59802834  0.24545199     0.14300
C97         C  0.45068339  0.82099697  0.12103412     0.86100
C98         C  0.42931697  0.80208748  0.11969783    -0.54200
C99         C  0.42948665  0.78719315  0.09880418     0.09000
C100        C  0.45176606  0.79248233  0.08118138     0.20000
C101        C  0.47443836  0.80480608  0.11868165    -0.54900
C102        C  0.47521180  0.78995799  0.09775029     0.09100
C103        C  0.44946503  0.83538122  0.09618079    -0.54400
C104        C  0.45002253  0.82061043  0.07538474     0.09700
H105        H  0.41531698  0.80072503  0.13432541     0.14200
H106        H  0.45217815  0.78093645  0.06392808    -0.00100
H107        H  0.48939318  0.80460599  0.13219204     0.14500
H108        H  0.44842437  0.85566600  0.09518790     0.14300
C109        C  0.66339014  0.59640166  0.11132997     0.86100
C110        C  0.64672882  0.61992084  0.10947086    -0.54200
C111        C  0.63274766  0.62128318  0.08801901     0.09000
C112        C  0.63669498  0.59860705  0.07040382     0.20000
C113        C  0.64509248  0.57460590  0.10827231    -0.54900
C114        C  0.63111930  0.57531061  0.08677732     0.09100
C115        C  0.67872971  0.59653892  0.08711883    -0.54400
C116        C  0.66498346  0.59774642  0.06575300     0.09700
H117        H  0.64503767  0.63381670  0.12410110     0.14200
H118        H  0.62601404  0.59963207  0.05268465    -0.00100
H119        H  0.64323187  0.56015907  0.12243381     0.14500
H120        H  0.69895281  0.59584552  0.08698363     0.14300
C121        C  0.23164255  0.60379972  0.11868548     0.86100
C122        C  0.25115847  0.58268369  0.11608037    -0.54200
C123        C  0.26552253  0.58403566  0.09487207     0.09000
C124        C  0.25932108  0.60698398  0.07835556     0.20000
C125        C  0.24696987  0.62791497  0.11704394    -0.54900
C126        C  0.26147817  0.62988023  0.09597174     0.09100
C127        C  0.21700913  0.60286465  0.09404691    -0.54400
C128        C  0.23129877  0.60467054  0.07298927     0.09700
H129        H  0.25393335  0.56797422  0.12967800     0.14200
H130        H  0.27053660  0.60829988  0.06094523    -0.00100
H131        H  0.24652210  0.64200235  0.13169412     0.14500
H132        H  0.19687483  0.60110447  0.09339605     0.14300
C133        C  0.44484188  0.38105360  0.11186882     0.86100
C134        C  0.46759988  0.39813986  0.10975374    -0.54200
C135        C  0.46789071  0.41311305  0.08895162     0.09000
C136        C  0.44463350  0.41002482  0.07224579     0.20000
C137        C  0.42244301  0.39911710  0.11066482    -0.54900
C138        C  0.42212958  0.41420593  0.08988379     0.09100
C139        C  0.44397689  0.36690794  0.08689640    -0.54400
C140        C  0.44397443  0.38185764  0.06619085     0.09700
H141        H  0.48241844  0.39807928  0.12358405     0.14200
H142        H  0.44457322  0.42199633  0.05523650    -0.00100
H143        H  0.40804400  0.40038219  0.12480263     0.14500
H144        H  0.44365522  0.34661087  0.08576847     0.14300
C145        C  0.66745146  0.98947833  0.50075834     0.86100
C146        C  0.64933671  0.99102970  0.52319477    -0.54200
C147        C  0.63449885  0.01204339  0.52341647     0.09000
C148        C  0.63933542  0.02962093  0.50081041     0.20000
C149        C  0.65040716  0.99192500  0.47777140    -0.54900
C150        C  0.63597375  0.01308838  0.47731570     0.09100
C151        C  0.68194501  0.01402228  0.50159735    -0.54400
C152        C  0.66745101  0.03498121  0.50159256     0.09700
H153        H  0.64735079  0.97635013  0.53700821     0.14200
H154        H  0.62796813  0.04697899  0.50067062    -0.00100
H155        H  0.65004499  0.97798060  0.46298292     0.14500
H156        H  0.70216261  0.01468395  0.50181448     0.14300
C157        C  0.44633536  0.98152879  0.71958059     0.86100
C158        C  0.42404041  0.98421626  0.70184694    -0.54200
C159        C  0.42421375  0.00531207  0.68731681     0.09000
C160        C  0.44751870  0.02164571  0.69138709     0.20000
C161        C  0.46915747  0.98289035  0.70206590    -0.54900
C162        C  0.46997396  0.00392901  0.68740649     0.09100
C163        C  0.44697235  0.00613473  0.73432663    -0.54400
C164        C  0.44760606  0.02708890  0.71975419     0.09700
H165        H  0.40923580  0.97047397  0.70108999     0.14200
H166        H  0.44805124  0.03885369  0.67975172    -0.00100
H167        H  0.48346492  0.96864940  0.70080115     0.14500
H168        H  0.44692256  0.00683540  0.75469293     0.14300
C169        C  0.44947464  0.98860818  0.28400887     0.86100
C170        C  0.47119360  0.99070217  0.30269263    -0.54200
C171        C  0.47125465  0.01220721  0.31676983     0.09000
C172        C  0.44879369  0.02945985  0.31094806     0.20000
C173        C  0.42600642  0.99159652  0.30050337    -0.54900
C174        C  0.42562092  0.01295189  0.31459527     0.09100
C175        C  0.45049643  0.01282518  0.26857537    -0.54400
C176        C  0.45008813  0.03415470  0.28256018     0.09700
H177        H  0.48507563  0.97602944  0.30455586     0.14200
H178        H  0.44811587  0.04713554  0.32174393    -0.00100
H179        H  0.41118931  0.97804415  0.30189675     0.14500
H180        H  0.45132394  0.01300465  0.24821482     0.14300
C181        C  0.23171171  0.98340061  0.50110751     0.86100
C182        C  0.24736665  0.98502400  0.47690715    -0.54200
C183        C  0.26185602  0.00594239  0.47517102     0.09000
C184        C  0.25960335  0.02333113  0.49819936     0.20000
C185        C  0.25076737  0.98571811  0.52233665    -0.54900
C186        C  0.26541054  0.00657794  0.52112433     0.09100
C187        C  0.21708416  0.00815178  0.50158508    -0.54400
C188        C  0.23154443  0.02902696  0.50021617     0.09700
H189        H  0.24731906  0.97116789  0.46217865     0.14200
H190        H  0.27105672  0.04050100  0.49697846    -0.00100
H191        H  0.25258041  0.97165802  0.53692510     0.14500
H192        H  0.19691517  0.00902310  0.50293838     0.14300
In193      In  0.20030273  0.09994180  0.49997861     1.36900
C194        C  0.18058560  0.10185672  0.54582349     0.77200
O195        O  0.19752815  0.05824059  0.50045412    -0.61300
O196        O  0.23370183  0.07409628  0.50009692    -0.52200
C197        C  0.18020966  0.09983835  0.45438503     0.69800
O198        O  0.16700150  0.09895426  0.47398570    -0.47000
C199        C  0.22050206  0.14512968  0.49908092     0.74600
O200        O  0.16718838  0.10139216  0.52638169    -0.58900
O201        O  0.23370108  0.12551670  0.49930063    -0.49000
O202        O  0.20367686  0.10113365  0.54162127    -0.55300
C203        C  0.22071859  0.05447306  0.50028139     0.84700
O204        O  0.20332367  0.10066573  0.45831044    -0.57200
O205        O  0.19734527  0.14140937  0.49926221    -0.60500
In206      In  0.45061527  0.10439521  0.24985730     1.36900
C207        C  0.40568565  0.10436441  0.22888087     0.77200
O208        O  0.45196501  0.06256459  0.24779191    -0.61300
O209        O  0.44896777  0.07919159  0.28378668    -0.52200
C210        C  0.49530029  0.10421721  0.22822740     0.69800
O211        O  0.47552564  0.10464673  0.21550578    -0.47000
C212        C  0.45106638  0.14956351  0.27112492     0.74600
O213        O  0.42541649  0.10349539  0.21605147    -0.58900
O214        O  0.45246618  0.12973072  0.28389438    -0.49000
O215        O  0.40903977  0.10524584  0.25224958    -0.55300
C216        C  0.45039079  0.05929925  0.27113692     0.84700
O217        O  0.49201343  0.10406736  0.25164188    -0.57200
O218        O  0.44963847  0.14613447  0.24778099    -0.60500
C219        C  0.33529190  0.10452429  0.21683478     0.86100
C220        C  0.33743984  0.12663337  0.19864602    -0.54200
C221        C  0.35853427  0.12658417  0.18433774     0.09000
C222        C  0.37559321  0.10377570  0.18926867     0.20000
C223        C  0.33760968  0.08131874  0.19968827    -0.54900
C224        C  0.35882271  0.08065429  0.18525219     0.09100
C225        C  0.35954070  0.10475254  0.23192669    -0.54400
C226        C  0.38059857  0.10432690  0.21765502     0.09700
H227        H  0.32313773  0.14096890  0.19704959     0.14200
H228        H  0.39301966  0.10389606  0.17814537    -0.00100
H229        H  0.32334002  0.06724481  0.19805217     0.14500
H230        H  0.35993166  0.10523190  0.25229396     0.14300
C231        C  0.32719777  0.32431276  0.00130403     0.86100
C232        C  0.32657329  0.30449864  0.98025793    -0.54200
C233        C  0.34665667  0.28860814  0.97994889     0.09000
C234        C  0.36584359  0.29424957  0.00063860     0.20000
C235        C  0.33050540  0.30884310  0.02536526    -0.54900
C236        C  0.35073488  0.29321442  0.02525694     0.09100
C237        C  0.35219902  0.33763133  0.99768321    -0.54400
C238        C  0.37243711  0.32206434  0.99744745     0.09700
H239        H  0.31166175  0.30254598  0.96683510     0.14200
H240        H  0.38236519  0.28172935  0.00044089    -0.00100
H241        H  0.31757317  0.30999270  0.04100020     0.14500
H242        H  0.35373384  0.35782900  0.99607791     0.14300
C243        C  0.33358559  0.88014245  0.00201673     0.86100
C244        C  0.33450846  0.89780106  0.02486696    -0.54200
C245        C  0.35508957  0.91280509  0.02569997     0.09000
C246        C  0.37272542  0.90916876  0.00312369     0.20000
C247        C  0.33586566  0.89762869  0.97930705    -0.54900
C248        C  0.35635983  0.91275156  0.97961706     0.09100
C249        C  0.35852006  0.86602031  0.00296582    -0.54400
C250        C  0.37894686  0.88107959  0.00341992     0.09700
H251        H  0.32049802  0.89864223  0.03939367     0.14200
H252        H  0.38956121  0.92110796  0.00350303    -0.00100
H253        H  0.32237199  0.89780442  0.96416359     0.14500
H254        H  0.35983924  0.84572876  0.00310584     0.14300
C255        C  0.33527304  0.09775138  0.78467389     0.86100
C256        C  0.33835738  0.07550555  0.80276222    -0.54200
C257        C  0.35918804  0.07660710  0.81756185     0.09000
C258        C  0.37513700  0.10004119  0.81278467     0.20000
C259        C  0.33631452  0.12095093  0.80185394    -0.54900
C260        C  0.35696047  0.12209876  0.81685810     0.09100
C261        C  0.35974042  0.09862033  0.76993916    -0.54400
C262        C  0.38057728  0.09957132  0.78442810     0.09700
H263        H  0.32478160  0.06057660  0.80408757     0.14200
H264        H  0.39221741  0.10084732  0.82439455    -0.00100
H265        H  0.32216194  0.13533352  0.80257598     0.14500
H266        H  0.36046677  0.09799639  0.74958036     0.14300
C267        C  0.56012138  0.32107556  0.99277674     0.86100
C268        C  0.56056596  0.30273232  0.01509552    -0.54200
C269        C  0.54059369  0.28700567  0.01627568     0.09000
C270        C  0.52153455  0.29136473  0.99512412     0.20000
C271        C  0.55724486  0.30383921  0.96985216    -0.54900
C272        C  0.53713200  0.28821154  0.97101640     0.09100
C273        C  0.53516114  0.33477370  0.99494867    -0.54400
C274        C  0.51490335  0.31948990  0.99598993     0.09700
H275        H  0.57592888  0.30081254  0.02805510     0.14200
H276        H  0.50508341  0.27890583  0.99606952    -0.00100
H277        H  0.57067893  0.30328060  0.95462132     0.14500
H278        H  0.53368125  0.35505551  0.99498879     0.14300
C279        C  0.56579673  0.10308459  0.21738183     0.86100
C280        C  0.56378570  0.08015177  0.20015053    -0.54200
C281        C  0.54323708  0.07999583  0.18495175     0.09000
C282        C  0.52623359  0.10307340  0.18874063     0.20000
C283        C  0.56418987  0.12557538  0.19922413    -0.54900
C284        C  0.54356614  0.12557658  0.18404403     0.09100
C285        C  0.54116132  0.10384785  0.23178112    -0.54400
C286        C  0.52046775  0.10379458  0.21707282     0.09700
H287        H  0.57764183  0.06531041  0.20015016     0.14200
H288        H  0.50943529  0.10298255  0.17671330    -0.00100
H289        H  0.57791199  0.14024699  0.19811343     0.14500
H290        H  0.54025261  0.10428244  0.25213857     0.14300
C291        C  0.56713397  0.09845887  0.77679736     0.86100
C292        C  0.56500469  0.12239883  0.79278929    -0.54200
C293        C  0.54509129  0.12275222  0.80884758     0.09000
C294        C  0.52911702  0.09885339  0.80761097     0.20000
C295        C  0.56740587  0.07717749  0.79602330    -0.54900
C296        C  0.54776474  0.07730322  0.81236335     0.09100
C297        C  0.54177128  0.09656379  0.76381321    -0.54400
C298        C  0.52187092  0.09675958  0.77973595     0.09700
H299        H  0.57791999  0.13780176  0.79203343     0.14200
H300        H  0.51289273  0.09899373  0.82051422    -0.00100
H301        H  0.58222618  0.06330320  0.79676205     0.14500
H302        H  0.53977882  0.09558348  0.74356267     0.14300
C303        C  0.56574198  0.87938940  0.99942640     0.86100
C304        C  0.56333198  0.89590253  0.97594285    -0.54200
C305        C  0.54337796  0.91201197  0.97614752     0.09000
C306        C  0.52729432  0.90973547  0.00012657     0.20000
C307        C  0.56593243  0.89832109  0.02122234    -0.54900
C308        C  0.54594825  0.91429419  0.02156783     0.09100
C309        C  0.54067050  0.86618034  0.00165827    -0.54400
C310        C  0.52051817  0.88176015  0.00194943     0.09700
H311        H  0.57655543  0.89485925  0.96056825     0.14200
H312        H  0.51103162  0.92258734  0.00067592    -0.00100
H313        H  0.58081870  0.90009229  0.03472994     0.14500
H314        H  0.53906774  0.84594096  0.00262850     0.14300
C315        C  0.44637602  0.38193937  0.87884082     0.86100
C316        C  0.42484717  0.40119981  0.87984691    -0.54200
C317        C  0.42487484  0.41625407  0.90078193     0.09000
C318        C  0.44691300  0.41053881  0.91865046     0.20000
C319        C  0.46990632  0.39785680  0.88138747    -0.54900
C320        C  0.47041374  0.41271259  0.90215611     0.09100
C321        C  0.44438352  0.36765390  0.90367307    -0.54400
C322        C  0.44485114  0.38237996  0.92449824     0.09700
H323        H  0.41122413  0.40340989  0.86512937     0.14200
H324        H  0.44760918  0.42216473  0.93583557    -0.00100
H325        H  0.48497742  0.39737214  0.86777701     0.14500
H326        H  0.44320333  0.34738405  0.90463048     0.14300
C327        C  0.22560610  0.60441801  0.88531149     0.86100
C328        C  0.24377756  0.62664551  0.88642027    -0.54200
C329        C  0.25978517  0.62614145  0.90646880     0.09000
C330        C  0.25634973  0.60285027  0.92340928     0.20000
C331        C  0.24258043  0.58129706  0.88566296    -0.54900
C332        C  0.25864701  0.58007202  0.90553721     0.09100
C333        C  0.21281801  0.60459535  0.91096154    -0.54400
C334        C  0.22858894  0.60369666  0.93091492     0.09700
H335        H  0.24430908  0.64155537  0.87273852     0.14200
H336        H  0.26897228  0.60214003  0.93983742    -0.00100
H337        H  0.24190767  0.56715671  0.87107216     0.14500
H338        H  0.19270182  0.60538068  0.91308093     0.14300
C339        C  0.44748812  0.81959972  0.88848403     0.86100
C340        C  0.47085286  0.80304601  0.88966176    -0.54200
C341        C  0.47256008  0.78824091  0.91050579     0.09000
C342        C  0.44989561  0.79092571  0.92824499     0.20000
C343        C  0.42575547  0.80096360  0.89081049    -0.54900
C344        C  0.42680859  0.78592224  0.91165342     0.09100
C345        C  0.44722327  0.83390858  0.91331753    -0.54400
C346        C  0.44856659  0.81913800  0.93409671     0.09700
H347        H  0.48490536  0.80318101  0.87500279     0.14200
H348        H  0.45096369  0.77917876  0.94536641    -0.00100
H349        H  0.41107999  0.79907601  0.87710169     0.14500
H350        H  0.44630430  0.85420202  0.91428955     0.14300
C351        C  0.66428713  0.59823212  0.88059859     0.86100
C352        C  0.64674406  0.57576433  0.88355250    -0.54200
C353        C  0.63282542  0.57572147  0.90517370     0.09000
C354        C  0.63761563  0.59901473  0.92165850     0.20000
C355        C  0.64684394  0.62117294  0.88281978    -0.54900
C356        C  0.63279729  0.62160226  0.90425237     0.09100
C357        C  0.67967553  0.59859771  0.90476160    -0.54400
C358        C  0.66589022  0.59900319  0.92619280     0.09700
H359        H  0.64539135  0.56147154  0.86920829     0.14200
H360        H  0.62691455  0.59976145  0.93940367    -0.00100
H361        H  0.64464233  0.63539146  0.86855365     0.14500
H362        H  0.69990519  0.59844124  0.90482967     0.14300
In363      In  0.19881259  0.60474049  0.00269347     1.36900
C364        C  0.17641643  0.56056012  0.00366122     0.77200
O365        O  0.19576263  0.60568234  0.96115107    -0.61300
O366        O  0.23212702  0.60263844  0.97623218    -0.52200
C367        C  0.17720840  0.64956058  0.00300451     0.69800
O368        O  0.16484105  0.62962075  0.00202622    -0.47000
C369        C  0.22020570  0.60461543  0.04769372     0.74600
O370        O  0.16437551  0.58083071  0.00444087    -0.58900
O371        O  0.23277907  0.60627804  0.02775227    -0.49000
O372        O  0.19972751  0.56302008  0.00229825    -0.55300
C373        C  0.21876507  0.60399427  0.95683216     0.84700
O374        O  0.20048588  0.64648548  0.00378207    -0.57200
O375        O  0.19705579  0.60300648  0.04442772    -0.60500
In376      In  0.44397459  0.35070579  0.99536299     1.36900
C377        C  0.39814908  0.33176110  0.99610045     0.77200
O378        O  0.44330965  0.34791908  0.03698221    -0.61300
O379        O  0.44435469  0.38434215  0.02101028    -0.52200
C380        C  0.48931238  0.32992489  0.99610067     0.69800
O381        O  0.46983474  0.31681419  0.99488665    -0.47000
C382        C  0.44442519  0.37149420  0.94997157     0.74600
O383        O  0.41730613  0.31794238  0.99610623    -0.58900
O384        O  0.44482546  0.38445800  0.96973959    -0.49000
O385        O  0.40261269  0.35487494  0.99536728    -0.55300
C386        C  0.44382392  0.37121105  0.04068804     0.84700
O387        O  0.48536232  0.35316725  0.99693591    -0.57200
O388        O  0.44382406  0.34817811  0.95358354    -0.60500
C389        C  0.94522360  0.71297902  0.21894365     0.86100
C390        C  0.96672224  0.70981701  0.19999675    -0.54200
C391        C  0.96600756  0.68809803  0.18634118     0.09000
C392        C  0.94334239  0.67154628  0.19288773     0.20000
C393        C  0.92167076  0.71032022  0.20290221    -0.54900
C394        C  0.92025930  0.68855793  0.18943545     0.09100
C395        C  0.94612365  0.68910970  0.23491296    -0.54400
C396        C  0.94494286  0.66749962  0.22142603     0.09700
H397        H  0.98095352  0.72366289  0.19681352     0.14200
H398        H  0.94259208  0.65369451  0.18236698    -0.00100
H399        H  0.90736895  0.72471510  0.20238826     0.14500
H400        H  0.94707260  0.68936454  0.25526428     0.14300
C401        C  0.16418701  0.72009778  0.00502128     0.86100
C402        C  0.14757522  0.71856871  0.98168013    -0.54200
C403        C  0.13354640  0.69734480  0.98017365     0.09000
C404        C  0.13725161  0.67941734  0.00258537     0.20000
C405        C  0.14608404  0.71661103  0.02730238    -0.54900
C406        C  0.13206946  0.69529677  0.02618435     0.09100
C407        C  0.17947098  0.69580964  0.00465756    -0.54400
C408        C  0.16557549  0.67457323  0.00332900     0.09700
H409        H  0.14712927  0.73308162  0.96741785     0.14200
H410        H  0.12605788  0.66203998  0.00147594    -0.00100
H411        H  0.14425640  0.72938319  0.04290800     0.14500
H412        H  0.19968546  0.69550731  0.00539363     0.14300
C413        C  0.73259756  0.71505116  0.00175560     0.86100
C414        C  0.75003827  0.71042140  0.02427704    -0.54200
C415        C  0.76423461  0.68923850  0.02233433     0.09000
C416        C  0.75976433  0.67445098  0.99796959     0.20000
C417        C  0.74998744  0.71465288  0.97885954    -0.54900
C418        C  0.76426601  0.69345300  0.97650461     0.09100
C419        C  0.71744764  0.69083208  0.99975944    -0.54400
C420        C  0.73151813  0.66958914  0.99784040     0.09700
H421        H  0.75156609  0.72245871  0.04047686     0.14200
H422        H  0.77084724  0.65695861  0.99672499    -0.00100
H423        H  0.75109884  0.73035386  0.96601535     0.14500
H424        H  0.69722821  0.69056166  0.00018734     0.14300
C425        C  0.95450080  0.72154808  0.77866484     0.86100
C426        C  0.93090645  0.72231396  0.79486668    -0.54200
C427        C  0.92786500  0.70217463  0.81050618     0.09000
C428        C  0.94948346  0.68295797  0.80847951     0.20000
C429        C  0.97581089  0.71840075  0.79775153    -0.54900
C430        C  0.97344173  0.69821597  0.81337993     0.09100
C431        C  0.95351681  0.69637915  0.76505599    -0.54400
C432        C  0.95072367  0.67620537  0.78039853     0.09700
H433        H  0.91804488  0.73799669  0.79412255     0.14200
H434        H  0.94746037  0.66622978  0.82057517    -0.00100
H435        H  0.99123901  0.73112874  0.79955230     0.14500
H436        H  0.95475469  0.69473952  0.74477779     0.14300
C437        C  0.16275627  0.49036684  0.00335128     0.86100
C438        C  0.14494525  0.49259734  0.02598186    -0.54200
C439        C  0.13083373  0.51400856  0.02613890     0.09000
C440        C  0.13610387  0.53146218  0.00364173     0.20000
C441        C  0.14562341  0.49345533  0.98045760    -0.54900
C442        C  0.13177418  0.51509213  0.98014054     0.09100
C443        C  0.17815226  0.51435399  0.00408133    -0.54400
C444        C  0.16444751  0.53580798  0.00412384     0.09700
H445        H  0.14256243  0.47831923  0.04016036     0.14200
H446        H  0.12533867  0.54918144  0.00414584    -0.00100
H447        H  0.14455439  0.47925606  0.96598730     0.14500
H448        H  0.19838532  0.51429135  0.00417637     0.14300
C449        C  0.94013852  0.48299217  0.21967766     0.86100
C450        C  0.91903290  0.48638875  0.20040828    -0.54200
C451        C  0.92068951  0.50773912  0.18633455     0.09000
C452        C  0.94359044  0.52386640  0.19284983     0.20000
C453        C  0.96402164  0.48466783  0.20386163    -0.54900
C454        C  0.96625110  0.50610176  0.18985536     0.09100
C455        C  0.93964564  0.50712957  0.23514330    -0.54400
C456        C  0.94150632  0.52847004  0.22134213     0.09700
H457        H  0.90443336  0.47293955  0.19713828     0.14200
H458        H  0.94480875  0.54147031  0.18193339    -0.00100
H459        H  0.97774459  0.46971928  0.20370734     0.14500
H460        H  0.93810733  0.50724247  0.25546703     0.14300
C461        C  0.72854634  0.48259353  0.99498574     0.86100
C462        C  0.74583221  0.48451494  0.97198675    -0.54200
C463        C  0.76113585  0.50495868  0.97210087     0.09000
C464        C  0.75796601  0.52155115  0.99565789     0.20000
C465        C  0.74635837  0.48324053  0.01743579    -0.54900
C466        C  0.76161483  0.50366642  0.01819204     0.09100
C467        C  0.71486239  0.50778188  0.99573522    -0.54400
C468        C  0.73000007  0.52816874  0.99605094     0.09700
H469        H  0.74657720  0.47092229  0.95699613     0.14200
H470        H  0.77009781  0.53829389  0.99601951    -0.00100
H471        H  0.74658119  0.46874954  0.03171683     0.14500
H472        H  0.69467865  0.50927522  0.99587427     0.14300
C473        C  0.95174325  0.48912898  0.77969972     0.86100
C474        C  0.97510882  0.49174799  0.79598686    -0.54200
C475        C  0.97542763  0.51247169  0.81106538     0.09000
C476        C  0.95155015  0.52860350  0.80873214     0.20000
C477        C  0.92999245  0.48987102  0.79861870    -0.54900
C478        C  0.92976261  0.51052329  0.81377397     0.09100
C479        C  0.94961593  0.51399964  0.76555826    -0.54400
C480        C  0.94952274  0.53463088  0.78057361     0.09700
H481        H  0.99006822  0.47803611  0.79553905     0.14200
H482        H  0.95130684  0.54560198  0.82065009    -0.00100
H483        H  0.91595181  0.47556607  0.80045303     0.14500
H484        H  0.94843007  0.51512621  0.74524674     0.14300
C485        C  0.94967413  0.32001836  0.61843932     0.86100
C486        C  0.92687069  0.30290948  0.61672143    -0.54200
C487        C  0.92606542  0.28833392  0.59568400     0.09000
C488        C  0.94893018  0.29177353  0.57841867     0.20000
C489        C  0.97199051  0.30183736  0.61642406    -0.54900
C490        C  0.97180978  0.28698631  0.59540721     0.09100
C491        C  0.94991486  0.33459444  0.59374300    -0.54400
C492        C  0.94952324  0.32001321  0.57284189     0.09700
H493        H  0.91253095  0.30251907  0.63108821     0.14200
H494        H  0.94843395  0.28034496  0.56109175    -0.00100
H495        H  0.98613529  0.29990529  0.63070145     0.14500
H496        H  0.95023896  0.35490954  0.59294418     0.14300
C497        C  0.17215156  0.10205936  0.61731930     0.86100
C498        C  0.15435368  0.12457526  0.61660229    -0.54200
C499        C  0.13896690  0.12542231  0.59615247     0.09000
C500        C  0.14253840  0.10281612  0.57829559     0.20000
C501        C  0.15475980  0.07927477  0.61545395    -0.54900
C502        C  0.13945940  0.07940710  0.59497340     0.09100
C503        C  0.18576096  0.10265937  0.59204554    -0.54400
C504        C  0.17048060  0.10285672  0.57161432     0.09700
H505        H  0.15404802  0.13864968  0.63127265     0.14200
H506        H  0.13031709  0.10306615  0.56154076    -0.00100
H507        H  0.15393905  0.06428790  0.62903793     0.14500
H508        H  0.20593475  0.10246122  0.59052364     0.14300
C509        C  0.73545033  0.10112916  0.61564367     0.86100
C510        C  0.75109957  0.07729494  0.61243868    -0.54200
C511        C  0.76471795  0.07625561  0.59074892     0.09000
C512        C  0.76156373  0.09983143  0.57418049     0.20000
C513        C  0.75441969  0.12250856  0.61312329    -0.54900
C514        C  0.76791666  0.12215765  0.59134112     0.09100
C515        C  0.71977261  0.10290998  0.59165900    -0.54400
C516        C  0.73331049  0.10219531  0.57000588     0.09700
H517        H  0.75146442  0.06261493  0.62651198     0.14200
H518        H  0.77223169  0.09928131  0.55636884    -0.00100
H519        H  0.75746346  0.13671880  0.62714109     0.14500
H520        H  0.69960464  0.10454598  0.59186528     0.14300
C521        C  0.95363534  0.88316540  0.60833392     0.86100
C522        C  0.97630049  0.90080618  0.60732668    -0.54200
C523        C  0.97671715  0.91609850  0.58676007     0.09000
C524        C  0.95453369  0.91214847  0.56881386     0.20000
C525        C  0.93106130  0.90078951  0.60607519    -0.54900
C526        C  0.93111029  0.91598014  0.58533416     0.09100
C527        C  0.95459069  0.86902465  0.58339051    -0.54400
C528        C  0.95489537  0.88396816  0.56270705     0.09700
H529        H  0.99044155  0.90215637  0.62167286     0.14200
H530        H  0.95534158  0.92394289  0.55175265    -0.00100
H531        H  0.91662313  0.90128094  0.62030084     0.14500
H532        H  0.95454571  0.84872475  0.58225063     0.14300
C533        C  0.17104071  0.10109223  0.38305809     0.86100
C534        C  0.15485447  0.07752364  0.38397636    -0.54200
C535        C  0.13968402  0.07577754  0.40453432     0.09000
C536        C  0.14194216  0.09847542  0.42238661     0.20000
C537        C  0.15214149  0.12282010  0.38509975    -0.54900
C538        C  0.13690644  0.12168327  0.40574310     0.09100
C539        C  0.18488050  0.10137184  0.40815378    -0.54400
C540        C  0.16986519  0.09994350  0.42872733     0.09700
H541        H  0.15524807  0.06359322  0.36917083     0.14200
H542        H  0.13009813  0.09732358  0.43938354    -0.00100
H543        H  0.15021928  0.13751615  0.37131264     0.14500
H544        H  0.20503136  0.10250320  0.40944935     0.14300
C545        C  0.95048444  0.31833268  0.38663814     0.86100
C546        C  0.97380588  0.30178748  0.38858517    -0.54200
C547        C  0.97499674  0.28726985  0.40969169     0.09000
C548        C  0.95204786  0.29041025  0.42698550     0.20000
C549        C  0.92868184  0.29980749  0.38891618    -0.54900
C550        C  0.92928715  0.28524500  0.41008066     0.09100
C551        C  0.94975406  0.33310387  0.41122694    -0.54400
C552        C  0.95061338  0.31872917  0.43230522     0.09700
H553        H  0.98816297  0.30163454  0.37422554     0.14200
H554        H  0.95276663  0.27893730  0.44431656    -0.00100
H555        H  0.91414050  0.29776661  0.37509640     0.14500
H556        H  0.94869541  0.35340427  0.41182706     0.14300
C557        C  0.73041906  0.10476407  0.38369992     0.86100
C558        C  0.74743594  0.12770907  0.38581851    -0.54200
C559        C  0.76198218  0.12821532  0.40685877     0.09000
C560        C  0.75857443  0.10497416  0.42371699     0.20000
C561        C  0.74857797  0.08236886  0.38537404    -0.54900
C562        C  0.76334282  0.08226852  0.40635281     0.09100
C563        C  0.71591731  0.10415706  0.40845760    -0.54400
C564        C  0.73048507  0.10428609  0.42935936     0.09700
H565        H  0.74784878  0.14230886  0.37166816     0.14200
H566        H  0.76999729  0.10515056  0.44100723    -0.00100
H567        H  0.75063822  0.06838781  0.37086361     0.14500
H568        H  0.69570771  0.10389015  0.40930127     0.14300
C569        C  0.94919193  0.88546847  0.37563054     0.86100
C570        C  0.92546562  0.90155933  0.37847281    -0.54200
C571        C  0.92484232  0.91593530  0.39968240     0.09000
C572        C  0.94821594  0.91295944  0.41623373     0.20000
C573        C  0.97049186  0.90444828  0.37738495    -0.54900
C574        C  0.97045466  0.91874387  0.39873910     0.09100
C575        C  0.95062508  0.87043631  0.40010335    -0.54400
C576        C  0.95011577  0.88466692  0.42130896     0.09700
H577        H  0.91056394  0.90243233  0.36490488     0.14200
H578        H  0.94756127  0.92412826  0.43372921    -0.00100
H579        H  0.98427145  0.90630436  0.36261937     0.14500
H580        H  0.95191539  0.85014692  0.40053634     0.14300
C581        C  0.83527011  0.82584352  0.49720512     0.86100
C582        C  0.83548052  0.80751251  0.47482047    -0.54200
C583        C  0.85567944  0.79179664  0.47417366     0.09000
C584        C  0.87406370  0.79598357  0.49590130     0.20000
C585        C  0.83785416  0.80879732  0.52026697    -0.54900
C586        C  0.85805681  0.79307084  0.51980256     0.09100
C587        C  0.86031715  0.83943226  0.49535770    -0.54400
C588        C  0.88061481  0.82396568  0.49472417     0.09700
H589        H  0.82114299  0.80646426  0.46067037     0.14200
H590        H  0.89046509  0.78333265  0.49521749    -0.00100
H591        H  0.82476411  0.80949244  0.53578041     0.14500
H592        H  0.86179977  0.85969114  0.49481835     0.14300
C593        C  0.83156598  0.60788195  0.71783895     0.86100
C594        C  0.83313789  0.63182793  0.70192107    -0.54200
C595        C  0.85404310  0.63362164  0.68722680     0.09000
C596        C  0.87138750  0.61052131  0.68954941     0.20000
C597        C  0.83393814  0.58654139  0.69850147    -0.54900
C598        C  0.85477990  0.58772989  0.68377151     0.09100
C599        C  0.85609027  0.60703271  0.73241952    -0.54400
C600        C  0.87690175  0.60833817  0.71783298     0.09700
H601        H  0.81862541  0.64601565  0.70226664     0.14200
H602        H  0.88851549  0.61141931  0.67794534    -0.00100
H603        H  0.82038738  0.57187204  0.69593228     0.14500
H604        H  0.85684672  0.60539086  0.75271757     0.14300
C605        C  0.82587902  0.59890625  0.27897197     0.86100
C606        C  0.82617148  0.57718320  0.29771504    -0.54200
C607        C  0.84504834  0.57801256  0.31495635     0.09000
C608        C  0.86239470  0.60075633  0.31152545     0.20000
C609        C  0.82586670  0.62256290  0.29528955    -0.54900
C610        C  0.84456861  0.62358532  0.31273301     0.09100
C611        C  0.85193224  0.59863320  0.26715592    -0.54400
C612        C  0.87106082  0.59947507  0.28392300     0.09700
H613        H  0.81235749  0.56242433  0.29728658     0.14200
H614        H  0.87782865  0.60142471  0.32528158    -0.00100
H615        H  0.81194641  0.63718176  0.29315434     0.14500
H616        H  0.85549841  0.59845384  0.24719865     0.14300
C617        C  0.83428259  0.38491525  0.50561190     0.86100
C618        C  0.83764207  0.40108510  0.52925625    -0.54200
C619        C  0.85857939  0.41559524  0.52910072     0.09000
C620        C  0.87438229  0.41261008  0.50512574     0.20000
C621        C  0.83526577  0.40398811  0.48388867    -0.54900
C622        C  0.85621905  0.41846401  0.48362387     0.09100
C623        C  0.85861216  0.37002166  0.50332384    -0.54400
C624        C  0.87955811  0.38433240  0.50315085     0.09700
H625        H  0.82425072  0.40142347  0.54453549     0.14200
H626        H  0.89143763  0.42426993  0.50502563    -0.00100
H627        H  0.82074159  0.40660543  0.47010061     0.14500
H628        H  0.85915930  0.34972019  0.50232785     0.14300
In629      In  0.94945588  0.35186265  0.50231217     1.36900
C630        C  0.90464180  0.37309431  0.50234055     0.77200
O631        O  0.95060084  0.35347840  0.46058439    -0.61300
O632        O  0.94933298  0.31755172  0.47749742    -0.52200
C633        C  0.99429867  0.37267599  0.50263849     0.69800
O634        O  0.97473150  0.38577069  0.50158240    -0.47000
C635        C  0.94941011  0.33099671  0.54750203     0.74600
O636        O  0.92434790  0.38582555  0.50257466    -0.58900
O637        O  0.94971930  0.31808032  0.52771987    -0.49000
O638        O  0.90799508  0.34975079  0.50177576    -0.55300
C639        C  0.95018319  0.33010199  0.45749117     0.84700
O640        O  0.99067239  0.34941669  0.50355567    -0.57200
O641        O  0.94902085  0.35431915  0.54401371    -0.60500
In642      In  0.94276069  0.59802810  0.25515891     1.36900
C643        C  0.89712203  0.59920935  0.27483887     0.77200
O644        O  0.94440719  0.63985648  0.25695124    -0.61300
O645        O  0.94284144  0.62265843  0.22107484    -0.52200
C646        C  0.98867978  0.59728029  0.27353118     0.69800
O647        O  0.96989741  0.59734738  0.28786754    -0.47000
C648        C  0.94186417  0.55337932  0.23325531     0.74600
O649        O  0.91615865  0.59908281  0.28875637    -0.58900
O650        O  0.94224201  0.57346278  0.22087202    -0.49000
O651        O  0.90184044  0.59888215  0.25170405    -0.55300
C652        C  0.94410518  0.64269266  0.23345391     0.84700
O653        O  0.98365407  0.59718545  0.25049146    -0.57200
O654        O  0.94190942  0.55621170  0.25676945    -0.60500
In655      In  0.95209753  0.85262089  0.49181228     1.36900
C656        C  0.95434997  0.87328446  0.53717740     0.77200
O657        O  0.91074739  0.85686787  0.49369682    -0.61300
O658        O  0.92537783  0.81995440  0.49230496    -0.52200
C659        C  0.95101288  0.87347229  0.44658964     0.69800
O660        O  0.95125191  0.88633050  0.46643124    -0.47000
C661        C  0.99677618  0.83090817  0.49116266     0.74600
O662        O  0.95409395  0.88634808  0.51745767    -0.58900
O663        O  0.97698934  0.81827817  0.49227139    -0.49000
O664        O  0.95366798  0.85000596  0.53349398    -0.55300
C665        C  0.90626996  0.83375243  0.49349833     0.84700
O666        O  0.95148400  0.85011964  0.44999874    -0.57200
O667        O  0.99347836  0.85423247  0.48974581    -0.60500
In668      In  0.94701427  0.60537643  0.74964667     1.36900
C669        C  0.99175060  0.60410017  0.72868459     0.77200
O670        O  0.95023442  0.64666893  0.74679358    -0.61300
O671        O  0.94643282  0.63126921  0.78331387    -0.52200
C672        C  0.90208165  0.60730555  0.72882225     0.69800
O673        O  0.92174676  0.60764771  0.71587295    -0.47000
C674        C  0.94798878  0.56008657  0.77004700     0.74600
O675        O  0.97210319  0.60341627  0.71574793    -0.58900
O676        O  0.94842441  0.57966571  0.78326487    -0.49000
O677        O  0.98832121  0.60516995  0.75204583    -0.55300
C678        C  0.94904900  0.65066273  0.77005429     0.84700
O679        O  0.90554120  0.60590016  0.75217018    -0.57200
O680        O  0.94645015  0.56386531  0.74677023    -0.60500
In681      In  0.69962480  0.10490792  0.50041515     1.36900
C682        C  0.71976995  0.10436203  0.45484216     0.77200
O683        O  0.70168403  0.06335374  0.50018712    -0.61300
O684        O  0.66576152  0.08006193  0.50189041    -0.52200
C685        C  0.72152853  0.10355915  0.54508368     0.69800
O686        O  0.73377882  0.10342106  0.52488658    -0.47000
C687        C  0.67922204  0.15030238  0.50029435     0.74600
O688        O  0.73282649  0.10533646  0.47445519    -0.58900
O689        O  0.66622336  0.13070770  0.50030500    -0.49000
O690        O  0.69662295  0.10360973  0.45866330    -0.55300
C691        C  0.67847770  0.06016348  0.50128045     0.84700
O692        O  0.69825186  0.10479409  0.54233873    -0.57200
O693        O  0.70239725  0.14653303  0.50039176    -0.60500
In694      In  0.69897530  0.59931200  0.99615151     1.36900
C695        C  0.71956668  0.55380116  0.99619760     0.77200
O696        O  0.70012159  0.59757899  0.03798121    -0.61300
O697        O  0.66465925  0.60003951  0.02064284    -0.52200
C698        C  0.72022800  0.64441378  0.99695573     0.69800
O699        O  0.73281820  0.62444261  0.99636394    -0.47000
C700        C  0.67750044  0.59920398  0.95122928     0.74600
O701        O  0.73262580  0.57337011  0.99606857    -0.58900
O702        O  0.66507962  0.59929094  0.97129306    -0.49000
O703        O  0.69642524  0.55772470  0.99630039    -0.55300
C704        C  0.67681683  0.59846990  0.04078358     0.84700
O705        O  0.69700742  0.64120851  0.99704222    -0.57200
O706        O  0.70077647  0.59924488  0.95422021    -0.60500
In707      In  0.44985585  0.85122943  0.00439081     1.36900
C708        C  0.40444273  0.87082668  0.00396886     0.77200
O709        O  0.44873587  0.85342182  0.96283273    -0.61300
O710        O  0.45007128  0.81719775  0.97926850    -0.52200
C711        C  0.49500436  0.87160650  0.00314756     0.69800
O712        O  0.47552936  0.88492219  0.00308976    -0.47000
C713        C  0.44979864  0.83121917  0.04989116     0.74600
O714        O  0.42367836  0.88432594  0.00457455    -0.58900
O715        O  0.45082641  0.81797340  0.03033131    -0.49000
O716        O  0.40861627  0.84760594  0.00375456    -0.55300
C717        C  0.44913351  0.83007764  0.95944368     0.84700
O718        O  0.49112870  0.84838929  0.00405313    -0.57200
O719        O  0.44878494  0.85447556  0.04603003    -0.60500
In720      In  0.45019228  0.09758265  0.75136524     1.36900
C721        C  0.49607912  0.09673899  0.77018965     0.77200
O722        O  0.44918117  0.05591847  0.75412526    -0.61300
O723        O  0.44860255  0.07208456  0.71772584    -0.52200
C724        C  0.40568539  0.09892424  0.77317844     0.69800
O725        O  0.42553746  0.09890856  0.78583313    -0.47000
C726        C  0.44940755  0.14245661  0.72984869     0.74600
O727        O  0.47706792  0.09747353  0.78412291    -0.58900
O728        O  0.44974681  0.12251576  0.71720329    -0.49000
O729        O  0.49142914  0.09638486  0.74704115    -0.55300
C730        C  0.44847069  0.05237787  0.73075120     0.84700
O731        O  0.40882901  0.09808515  0.74976847    -0.57200
O732        O  0.44979107  0.13931226  0.75327457    -0.60500
C733        C  0.84709248  0.55951229  0.33581419    -0.03600
C734        C  0.82540929  0.54899902  0.34602927    -0.06200
C735        C  0.82681183  0.53099394  0.36485424    -0.21300
C736        C  0.84986208  0.52305413  0.37434776     0.24400
C737        C  0.87172644  0.53392745  0.36465907    -0.18800
C738        C  0.87030304  0.55204432  0.34555787    -0.08800
C739        C  0.84950554  0.50309835  0.39384910    -0.19100
C740        C  0.86874791  0.49610049  0.40853665    -0.23900
C741        C  0.86573515  0.47681001  0.42855679     0.26500
C742        C  0.88617504  0.46206371  0.43599581    -0.20700
C743        C  0.88331759  0.44327999  0.45419156    -0.10300
C744        C  0.85993942  0.43893747  0.46517964    -0.10900
C745        C  0.83979635  0.45429587  0.45844087    -0.03800
C746        C  0.84267785  0.47312196  0.44058325    -0.18900
H747        H  0.80716718  0.55477565  0.33959929     0.10200
H748        H  0.80963750  0.52320931  0.37206950     0.10300
H749        H  0.88989114  0.52821809  0.37128200     0.09900
H750        H  0.88736571  0.55969400  0.33800042     0.11000
H751        H  0.83180572  0.49369762  0.39632392     0.11100
H752        H  0.88701517  0.50422750  0.40584172     0.13000
H753        H  0.90423223  0.46475164  0.42736174     0.09600
H754        H  0.89918607  0.43175776  0.45919625     0.11600
H755        H  0.82176967  0.45193238  0.46723421     0.08300
H756        H  0.82676950  0.48489942  0.43650045     0.11000
C757        C  0.86062055  0.56825932  0.66458953    -0.03600
C758        C  0.87019618  0.57481703  0.64100849    -0.06200
C759        C  0.87386477  0.55658760  0.62245428    -0.21300
C760        C  0.86843144  0.53129555  0.62713313     0.24400
C761        C  0.85937625  0.52466907  0.65103115    -0.18800
C762        C  0.85556672  0.54292661  0.66947229    -0.08800
C763        C  0.87064530  0.51291483  0.60610306    -0.19100
C764        C  0.87148452  0.48782397  0.60922546    -0.23900
C765        C  0.87058047  0.46929621  0.58824681     0.26500
C766        C  0.86368325  0.44457190  0.59383339    -0.20700
C767        C  0.86042401  0.42695862  0.57473076    -0.10300
C768        C  0.86439052  0.43353156  0.54955328    -0.10900
C769        C  0.87266133  0.45778234  0.54395176    -0.03800
C770        C  0.87567647  0.47553630  0.56305519    -0.18900
H771        H  0.87401488  0.59411689  0.63654352     0.10200
H772        H  0.88063472  0.56234265  0.60420352     0.10300
H773        H  0.85432672  0.50562685  0.65545198     0.09900
H774        H  0.84838075  0.53721583  0.68756762     0.11000
H775        H  0.87081311  0.52065478  0.58731899     0.11100
H776        H  0.87157310  0.48019843  0.62806671     0.13000
H777        H  0.86001286  0.43903643  0.61302814     0.09600
H778        H  0.85448100  0.40824079  0.57961686     0.11600
H779        H  0.87591875  0.46331431  0.52468585     0.08300
H780        H  0.88182362  0.49404604  0.55785882     0.11000
C781        C  0.85904341  0.65581876  0.67081423    -0.03600
C782        C  0.84924740  0.67952016  0.67696401    -0.06200
C783        C  0.85167622  0.69972603  0.66048828    -0.21300
C784        C  0.86415893  0.69698260  0.63750936     0.24400
C785        C  0.87513022  0.67368720  0.63185304    -0.18800
C786        C  0.87270767  0.65342874  0.64840596    -0.08800
C787        C  0.86283785  0.71794274  0.61909627    -0.19100
C788        C  0.87735367  0.72014252  0.59854127    -0.23900
C789        C  0.87246671  0.73939305  0.57891909     0.26500
C790        C  0.89219505  0.74911316  0.56465748    -0.20700
C791        C  0.88766360  0.76666055  0.54558574    -0.10300
C792        C  0.86322405  0.77451505  0.54011494    -0.10900
C793        C  0.84350659  0.76429404  0.55410908    -0.03800
C794        C  0.84805118  0.74705773  0.57325308    -0.18900
H795        H  0.83934579  0.68249230  0.69440294     0.10200
H796        H  0.84316370  0.71746391  0.66546203     0.10300
H797        H  0.88460684  0.67060448  0.61421327     0.09900
H798        H  0.88071851  0.63569108  0.64301511     0.11000
H799        H  0.84865243  0.73210872  0.62246242     0.11100
H800        H  0.89315058  0.70770138  0.59588438     0.13000
H801        H  0.91116146  0.74329412  0.56844842     0.09600
H802        H  0.90334718  0.77425530  0.53540496     0.11600
H803        H  0.82437385  0.76915230  0.54997404     0.08300
H804        H  0.83228338  0.73921315  0.58311467     0.11000
C805        C  0.85838632  0.77143657  0.45528983    -0.03600
C806        C  0.88181640  0.76470793  0.44558589    -0.06200
C807        C  0.88402527  0.74534921  0.42791798    -0.21300
C808        C  0.86288602  0.73236076  0.41958861     0.24400
C809        C  0.83955290  0.73876282  0.42989819    -0.18800
C810        C  0.83735046  0.75812851  0.44733287    -0.08800
C811        C  0.86572412  0.71174790  0.40085285    -0.19100
C812        C  0.84689669  0.70453257  0.38579227    -0.23900
C813        C  0.84765784  0.68332093  0.36761407     0.26500
C814        C  0.82496720  0.67554710  0.35731678    -0.20700
C815        C  0.82407187  0.65611839  0.33991886    -0.10300
C816        C  0.84596032  0.64398117  0.33187133    -0.10900
C817        C  0.86877897  0.65149292  0.34231576    -0.03800
C818        C  0.86966658  0.67097335  0.36001691    -0.18900
H819        H  0.89837257  0.77462165  0.45137767     0.10200
H820        H  0.90226498  0.74064694  0.42056933     0.10300
H821        H  0.82291533  0.72854361  0.42507606     0.09900
H822        H  0.81914444  0.76228254  0.45506318     0.11000
H823        H  0.88374032  0.70263282  0.39951329     0.11100
H824        H  0.82937995  0.71465045  0.38685068     0.13000
H825        H  0.80767175  0.68447688  0.36288732     0.09600
H826        H  0.80601384  0.65047747  0.33303796     0.11600
H827        H  0.88602751  0.64274062  0.33644157     0.08300
H828        H  0.88761370  0.67647951  0.36721853     0.11000
C829        C  0.78267152  0.06255637  0.41104896    -0.03600
C830        C  0.80460537  0.06815975  0.42417353    -0.06200
C831        C  0.82366997  0.05041374  0.42658891    -0.21300
C832        C  0.82121407  0.02638403  0.41633574     0.24400
C833        C  0.79887929  0.02037116  0.40395664    -0.18800
C834        C  0.77985666  0.03819061  0.40147620    -0.08800
C835        C  0.84298355  0.00896992  0.41741209    -0.19100
C836        C  0.84141558  0.98403691  0.41380448    -0.23900
C837        C  0.86324084  0.96669130  0.41221630     0.26500
C838        C  0.85925581  0.94246704  0.40290570    -0.20700
C839        C  0.87910805  0.92582645  0.39951833    -0.10300
C840        C  0.90354708  0.93292060  0.40547234    -0.10900
C841        C  0.90751601  0.95672537  0.41576509    -0.03800
C842        C  0.88763931  0.97348431  0.41909804    -0.18900
H843        H  0.80758199  0.08645165  0.43196497     0.10200
H844        H  0.84062619  0.05564957  0.43618901     0.10300
H845        H  0.79619618  0.00230478  0.39531876     0.09900
H846        H  0.76302898  0.03286371  0.39175555     0.11000
H847        H  0.86094570  0.01743576  0.42080224     0.11100
H848        H  0.82325663  0.97574463  0.41097204     0.13000
H849        H  0.84071767  0.93651644  0.39770086     0.09600
H850        H  0.87532445  0.90740927  0.39201924     0.11600
H851        H  0.92607116  0.96276751  0.42047010     0.08300
H852        H  0.89169938  0.99164313  0.42691636     0.11000
C853        C  0.90956739  0.26651136  0.41581353    -0.03600
C854        C  0.91541392  0.24386925  0.42782531    -0.06200
C855        C  0.89730480  0.22539292  0.43104588    -0.21300
C856        C  0.87278996  0.22926346  0.42275872     0.24400
C857        C  0.86668341  0.25234597  0.41156020    -0.18800
C858        C  0.88482328  0.27072721  0.40825485    -0.08800
C859        C  0.85482890  0.20814738  0.42428713    -0.19100
C860        C  0.82992745  0.21093982  0.42244019    -0.23900
C861        C  0.81232963  0.18961401  0.42043758     0.26500
C862        C  0.78931020  0.19369871  0.40871156    -0.20700
C863        C  0.77283040  0.17393770  0.40478327    -0.10300
C864        C  0.77887284  0.14953867  0.41267708    -0.10900
C865        C  0.80131077  0.14575262  0.42566310    -0.03800
C866        C  0.81792153  0.16549169  0.42944554    -0.18900
H867        H  0.93412254  0.23995474  0.43396941     0.10200
H868        H  0.90259734  0.20779276  0.43964965     0.10300
H869        H  0.84824426  0.25610509  0.40438704     0.09900
H870        H  0.87946636  0.28817297  0.39942464     0.11000
H871        H  0.86274357  0.18952389  0.42602086     0.11100
H872        H  0.82197414  0.22953963  0.42077864     0.13000
H873        H  0.78429164  0.21217099  0.40198218     0.09600
H874        H  0.75534148  0.17784022  0.39548900     0.11600
H875        H  0.80646256  0.12749815  0.43244753     0.08300
H876        H  0.83502430  0.16170214  0.43944503     0.11000
C877        C  0.99673481  0.27056547  0.41488350    -0.03600
C878        C  0.02074242  0.27754130  0.40706582    -0.06200
C879        C  0.04084237  0.26104160  0.40947096    -0.21300
C880        C  0.03753484  0.23704777  0.41958107     0.24400
C881        C  0.01380739  0.23051953  0.42873975    -0.18800
C882        C  0.99368701  0.24718038  0.42648135    -0.08800
C883        C  0.05926991  0.21957660  0.41972706    -0.19100
C884        C  0.05733070  0.19445026  0.42105511    -0.23900
C885        C  0.07885694  0.17688668  0.41848631     0.26500
C886        C  0.07617441  0.15220808  0.42700707    -0.20700
C887        C  0.09520569  0.13458427  0.42355748    -0.10300
C888        C  0.11731446  0.14097915  0.41105088    -0.10900
C889        C  0.12021930  0.16587300  0.40293860    -0.03800
C890        C  0.10124453  0.18357267  0.40649522    -0.18900
H891        H  0.02400481  0.29573574  0.39879165     0.10200
H892        H  0.05895650  0.26682937  0.40271493     0.10300
H893        H  0.01057061  0.21261826  0.43757095     0.09900
H894        H  0.97566782  0.24134182  0.43310977     0.11000
H895        H  0.07748880  0.22791141  0.41736095     0.11100
H896        H  0.03916236  0.18605241  0.42358170     0.13000
H897        H  0.05913580  0.14643970  0.43619819     0.09600
H898        H  0.09214271  0.11585093  0.43017968     0.11600
H899        H  0.13715145  0.17177689  0.39369509     0.08300
H900        H  0.10403884  0.20217581  0.39909799     0.11000
C901        C  0.99027187  0.93755692  0.40428350    -0.03600
C902        C  0.98564094  0.95805038  0.42018959    -0.06200
C903        C  0.00385296  0.97629613  0.42411405    -0.21300
C904        C  0.02727322  0.97443436  0.41251877     0.24400
C905        C  0.03217122  0.95362915  0.39710234    -0.18800
C906        C  0.01402939  0.93538833  0.39325753    -0.08800
C907        C  0.04536023  0.99529008  0.41560503    -0.19100
C908        C  0.06998750  0.99307568  0.41091596    -0.23900
C909        C  0.08795682  0.01427320  0.41136975     0.26500
C910        C  0.11140214  0.01075658  0.40020573    -0.20700
C911        C  0.12844010  0.03039598  0.39870888    -0.10300
C912        C  0.12250963  0.05418165  0.40839239    -0.10900
C913        C  0.09960911  0.05729873  0.42076136    -0.03800
C914        C  0.08247499  0.03769259  0.42218081    -0.18900
H915        H  0.96782536  0.96053280  0.42920338     0.10200
H916        H  0.99949305  0.99213695  0.43603467     0.10300
H917        H  0.04966750  0.95155599  0.38728454     0.09900
H918        H  0.01879350  0.91961294  0.38147959     0.11000
H919        H  0.03769102  0.01314204  0.42143457     0.11100
H920        H  0.07750070  0.97498987  0.40557215     0.13000
H921        H  0.11640695  0.99283762  0.39210317     0.09600
H922        H  0.14622770  0.02689692  0.38979000     0.11600
H923        H  0.09447579  0.07500600  0.42885520     0.08300
H924        H  0.06507173  0.04117415  0.43175517     0.11000
C925        C  0.78088642  0.05434279  0.58443949    -0.03600
C926        C  0.77467917  0.03024442  0.59297552    -0.06200
C927        C  0.79093494  0.01008447  0.58936994    -0.21300
C928        C  0.81385841  0.01339089  0.57719539     0.24400
C929        C  0.81945778  0.03716660  0.56729786    -0.18800
C930        C  0.80311422  0.05736764  0.57088963    -0.08800
C931        C  0.83135186  0.99167461  0.57594433    -0.19100
C932        C  0.85604055  0.99371054  0.57178920    -0.23900
C933        C  0.87385520  0.97233640  0.57363372     0.26500
C934        C  0.89703892  0.97423416  0.56168512    -0.20700
C935        C  0.91515682  0.95557635  0.56458684    -0.10300
C936        C  0.91086028  0.93471480  0.58009888    -0.10900
C937        C  0.88718841  0.93243076  0.59132914    -0.03800
C938        C  0.86901871  0.95101854  0.58830037    -0.18900
H939        H  0.75731865  0.02692515  0.60272765     0.10200
H940        H  0.78584309  0.99193095  0.59677559     0.10300
H941        H  0.83643493  0.04044372  0.55693410     0.09900
H942        H  0.80838577  0.07546279  0.56373361     0.11000
H943        H  0.82359114  0.97339938  0.57994032     0.11100
H944        H  0.86396322  0.01181943  0.56746389     0.13000
H945        H  0.90128247  0.99041265  0.55022649     0.09600
H946        H  0.93262660  0.95809837  0.55500069     0.11600
H947        H  0.88252621  0.91638322  0.60271514     0.08300
H948        H  0.85159665  0.94889871  0.59823329     0.11000
C949        C  0.12269679  0.05803876  0.58922565    -0.03600
C950        C  0.13039842  0.03339347  0.59445280    -0.06200
C951        C  0.11434208  0.01326934  0.59064914    -0.21300
C952        C  0.09008375  0.01721579  0.58177251     0.24400
C953        C  0.08267647  0.04177793  0.57548676    -0.18800
C954        C  0.09888178  0.06195507  0.57913714    -0.08800
C955        C  0.07322682  0.99523684  0.57959088    -0.19100
C956        C  0.04821026  0.99702611  0.58083768    -0.23900
C957        C  0.03094255  0.97523077  0.58078714     0.26500
C958        C  0.00561632  0.97976192  0.57608729    -0.20700
C959        C  0.98825884  0.96040810  0.57733734    -0.10300
C960        C  0.99569821  0.93601702  0.58350171    -0.10900
C961        C  0.02102976  0.93127733  0.58816402    -0.03800
C962        C  0.03852618  0.95063857  0.58676297    -0.18900
H963        H  0.14890383  0.02962647  0.60158037     0.10200
H964        H  0.12072698  0.99456545  0.59524091     0.10300
H965        H  0.06446013  0.04554877  0.56771897     0.09900
H966        H  0.09250150  0.08064030  0.57469886     0.11000
H967        H  0.08196319  0.97696426  0.57820208     0.11100
H968        H  0.03968334  0.01539126  0.58246969     0.13000
H969        H  0.99912611  0.99850050  0.57180481     0.09600
H970        H  0.96885991  0.96480880  0.57452818     0.11600
H971        H  0.02724033  0.91262625  0.59315968     0.08300
H972        H  0.05769042  0.94629699  0.59117674     0.11000
C973        C  0.12130565  0.14670137  0.59184951    -0.03600
C974        C  0.12733443  0.17086892  0.60027054    -0.06200
C975        C  0.11054540  0.19070855  0.59762767    -0.21300
C976        C  0.08716441  0.18710037  0.58656716     0.24400
C977        C  0.08131282  0.16310312  0.57734557    -0.18800
C978        C  0.09826573  0.14316688  0.57992352    -0.08800
C979        C  0.06980729  0.20898088  0.58536789    -0.19100
C980        C  0.04499734  0.20734175  0.58186110    -0.23900
C981        C  0.02755948  0.22914088  0.58364578     0.26500
C982        C  0.00360745  0.22689407  0.57345752    -0.20700
C983        C  0.98588482  0.24592805  0.57652434    -0.10300
C984        C  0.99144182  0.26765046  0.59022886    -0.10900
C985        C  0.01572356  0.27026872  0.59976220    -0.03800
C986        C  0.03350042  0.25126784  0.59664834    -0.18900
H987        H  0.14516435  0.17458845  0.60888836     0.10200
H988        H  0.11577159  0.20896770  0.60463740     0.10300
H989        H  0.06381383  0.15954308  0.56806708     0.09900
H990        H  0.09304951  0.12491676  0.57305782     0.11000
H991        H  0.07796453  0.22719925  0.58865932     0.11100
H992        H  0.03673090  0.18925079  0.57817878     0.13000
H993        H  0.99841711  0.21010910  0.56339348     0.09600
H994        H  0.96764542  0.24307043  0.56873832     0.11600
H995        H  0.02105338  0.28692765  0.60990604     0.08300
H996        H  0.05149865  0.25378910  0.60527750     0.11000
C997        C  0.90467067  0.27155386  0.59017107    -0.03600
C998        C  0.88050199  0.27799140  0.59814655    -0.06200
C999        C  0.86060335  0.26172142  0.59427251    -0.21300
C1000       C  0.86428759  0.23855641  0.58243181     0.24400
C1001       C  0.88826787  0.23251179  0.57353265    -0.18800
C1002       C  0.90816710  0.24887240  0.57736350    -0.08800
C1003       C  0.84267567  0.22134558  0.58026596    -0.19100
C1004       C  0.84475187  0.19648121  0.57639004    -0.23900
C1005       C  0.82342930  0.17882650  0.57783816     0.26500
C1006       C  0.82619637  0.15474955  0.56763169    -0.20700
C1007       C  0.80780294  0.13659882  0.57110571    -0.10300
C1008       C  0.78633371  0.14203211  0.58515311    -0.10900
C1009       C  0.78303595  0.16651041  0.59433541    -0.03800
C1010       C  0.80138583  0.18460856  0.59093935    -0.18900
H1011       H  0.87688092  0.29565767  0.60740619     0.10200
H1012       H  0.84230475  0.26708359  0.60101391     0.10300
H1013       H  0.89189919  0.21528591  0.56356075     0.09900
H1014       H  0.92633491  0.24337728  0.57073555     0.11000
H1015       H  0.82442140  0.22952914  0.58331830     0.11100
H1016       H  0.86290956  0.18822279  0.57302886     0.13000
H1017       H  0.84297141  0.14975344  0.55746382     0.09600
H1018       H  0.81097140  0.11811270  0.56362188     0.11600
H1019       H  0.76639730  0.17169441  0.60459624     0.08300
H1020       H  0.79848508  0.20267689  0.59955956     0.11000
C1021       C  0.94832633  0.33788015  0.64074819    -0.03600
C1022       C  0.92661695  0.35247374  0.64384290    -0.06200
C1023       C  0.92469396  0.37005878  0.66306301    -0.21300
C1024       C  0.94468375  0.37418079  0.67931214     0.24400
C1025       C  0.96644233  0.35971817  0.67650474    -0.18800
C1026       C  0.96826467  0.34175827  0.65745060    -0.08800
C1027       C  0.94199690  0.39353618  0.69906226    -0.19100
C1028       C  0.96123746  0.40709388  0.70766573    -0.23900
C1029       C  0.95824149  0.42743699  0.72643722     0.26500
C1030       C  0.97570864  0.44681178  0.72700001    -0.20700
C1031       C  0.97336453  0.46631970  0.74428883    -0.10300
C1032       C  0.95357363  0.46694845  0.76168164    -0.10900
C1033       C  0.93633612  0.44714108  0.76133804    -0.03800
C1034       C  0.93869702  0.42764787  0.74400674    -0.18900
H1035       H  0.91107231  0.35037766  0.63111160     0.10200
H1036       H  0.90770675  0.38092398  0.66486437     0.10300
H1037       H  0.98203863  0.36213940  0.68908258     0.09900
H1038       H  0.98558251  0.33163022  0.65572006     0.11000
H1039       H  0.92322672  0.39800548  0.70521689     0.11100
H1040       H  0.97959911  0.40431024  0.69954719     0.13000
H1041       H  0.99107579  0.44702093  0.71381694     0.09600
H1042       H  0.98703839  0.48115687  0.74402762     0.11600
H1043       H  0.92091541  0.44622511  0.77421802     0.08300
H1044       H  0.92532839  0.41258974  0.74473028     0.11000
C1045       C  0.77851115  0.51045915  0.95098087    -0.03600
C1046       C  0.77205477  0.50411530  0.92623108    -0.06200
C1047       C  0.78885212  0.50767412  0.90652922    -0.21300
C1048       C  0.81260433  0.51749850  0.91099928     0.24400
C1049       C  0.81870557  0.52492629  0.93558750    -0.18800
C1050       C  0.80179510  0.52145605  0.95532051    -0.08800
C1051       C  0.83031569  0.51937168  0.88952860    -0.19100
C1052       C  0.85527238  0.52001109  0.89220268    -0.23900
C1053       C  0.87327696  0.51938241  0.87089317     0.26500
C1054       C  0.89794797  0.52673241  0.87532666    -0.20700
C1055       C  0.91606315  0.52463824  0.85656010    -0.10300
C1056       C  0.91005038  0.51478042  0.83299048    -0.10900
C1057       C  0.88525064  0.50788853  0.82828538    -0.03800
C1058       C  0.86705790  0.51011480  0.84698891    -0.18900
H1059       H  0.75397382  0.49631381  0.92202791     0.10200
H1060       H  0.78343836  0.50218803  0.88776171     0.10300
H1061       H  0.83643228  0.53344368  0.93976316     0.09900
H1062       H  0.80727306  0.52680664  0.97403676     0.11000
H1063       H  0.82233664  0.51896100  0.87086764     0.11100
H1064       H  0.86321118  0.52040233  0.91088096     0.13000
H1065       H  0.90334536  0.53376409  0.89356811     0.09600
H1066       H  0.93494281  0.52985657  0.86088528     0.11600
H1067       H  0.87994406  0.50047530  0.81017894     0.08300
H1068       H  0.84847761  0.50369940  0.84278768     0.11000
C1069       C  0.95132649  0.33587565  0.36398378    -0.03600
C1070       C  0.97143701  0.35257784  0.36200625    -0.06200
C1071       C  0.97279317  0.36988289  0.34245687    -0.21300
C1072       C  0.95402486  0.37123460  0.32427112     0.24400
C1073       C  0.93410085  0.35426361  0.32573952    -0.18800
C1074       C  0.93272930  0.33685746  0.34535581    -0.08800
C1075       C  0.95627518  0.39051539  0.30420074    -0.19100
C1076       C  0.93707038  0.39883871  0.29016011    -0.23900
C1077       C  0.93905854  0.41941291  0.27133724     0.26500
C1078       C  0.91972343  0.42260219  0.25394868    -0.20700
C1079       C  0.91992029  0.44245227  0.23681927    -0.10300
C1080       C  0.93957757  0.45986410  0.23663857    -0.10900
C1081       C  0.95905095  0.45642469  0.25397962    -0.03800
C1082       C  0.95880913  0.43662971  0.27111975    -0.18900
H1083       H  0.98609538  0.35240844  0.37593851     0.10200
H1084       H  0.98845689  0.38256643  0.34178159     0.10300
H1085       H  0.91958319  0.35409248  0.31173497     0.09900
H1086       H  0.91689114  0.32457354  0.34563475     0.11000
H1087       H  0.97455468  0.39862051  0.30163486     0.11100
H1088       H  0.91880427  0.39066176  0.29267211     0.13000
H1089       H  0.90414783  0.40979229  0.25379433     0.09600
H1090       H  0.90423577  0.44403495  0.22436394     0.11600
H1091       H  0.97432531  0.46957466  0.25463556     0.08300
H1092       H  0.97379556  0.43555473  0.28455965     0.11000
C1093       C  0.90246124  0.51361901  0.16606237    -0.03600
C1094       C  0.91030825  0.52409307  0.14326394    -0.06200
C1095       C  0.89370981  0.52674826  0.12318768    -0.21300
C1096       C  0.86876761  0.51924367  0.12546185     0.24400
C1097       C  0.86069152  0.50960438  0.14869626    -0.18800
C1098       C  0.87730459  0.50696136  0.16870150    -0.08800
C1099       C  0.85248925  0.51996421  0.10273742    -0.19100
C1100       C  0.82748841  0.51763446  0.10348913    -0.23900
C1101       C  0.81119929  0.51518369  0.08098921     0.26500
C1102       C  0.78738886  0.50504534  0.08441646    -0.20700
C1103       C  0.77140394  0.50158929  0.06411741    -0.10300
C1104       C  0.77867551  0.50835727  0.03971477    -0.10900
C1105       C  0.80220443  0.51921998  0.03624647    -0.03800
C1106       C  0.81839554  0.52252076  0.05663335    -0.18900
H1107       H  0.92949783  0.52919271  0.14045859     0.10200
H1108       H  0.90056715  0.53412770  0.10557038     0.10300
H1109       H  0.84189607  0.50306716  0.15145697     0.09900
H1110       H  0.87051888  0.49914448  0.18614504     0.11000
H1111       H  0.86176880  0.52158201  0.08474028     0.11100
H1112       H  0.81822399  0.51630770  0.12149664     0.13000
H1113       H  0.78117548  0.49944994  0.10292100     0.09600
H1114       H  0.75318207  0.49373838  0.06762353     0.11600
H1115       H  0.80831773  0.52474012  0.01775347     0.08300
H1116       H  0.83631104  0.53098433  0.05317619     0.11000
C1117       C  0.11120063  0.51868930  0.04541758    -0.03600
C1118       C  0.08766846  0.52780485  0.03847351    -0.06200
C1119       C  0.06848307  0.52998486  0.05618649    -0.21300
C1120       C  0.07231723  0.52325868  0.08139230     0.24400
C1121       C  0.09620919  0.51470772  0.08844631    -0.18800
C1122       C  0.11531313  0.51243508  0.07066112    -0.08800
C1123       C  0.05059012  0.52428103  0.09907229    -0.19100
C1124       C  0.05190836  0.51934692  0.12389302    -0.23900
C1125       C  0.02981909  0.51758629  0.14080235     0.26500
C1126       C  0.03186294  0.50293769  0.16253191    -0.20700
C1127       C  0.01153892  0.49972913  0.17858878    -0.10300
C1128       C  0.98843250  0.51118132  0.17347660    -0.10900
C1129       C  0.98679838  0.52699250  0.15238852    -0.03800
C1130       C  0.00715846  0.53005229  0.13614301    -0.18900
H1131       H  0.08369858  0.53225261  0.01916632     0.10200
H1132       H  0.05036898  0.53648347  0.05001124     0.10300
H1133       H  0.10038970  0.50910713  0.10741702     0.09900
H1134       H  0.13331897  0.50546956  0.07662718     0.11000
H1135       H  0.03251006  0.52824112  0.09089225     0.11100
H1136       H  0.06966946  0.51480232  0.13231266     0.13000
H1137       H  0.04921428  0.49350874  0.16692119     0.09600
H1138       H  0.01413592  0.48825512  0.19509231     0.11600
H1139       H  0.96977291  0.53676093  0.14799923     0.08300
H1140       H  0.00507951  0.54229342  0.12011705     0.11000
C1141       C  0.11415397  0.52154128  0.95927713    -0.03600
C1142       C  0.09405053  0.53807322  0.96315403    -0.06200
C1143       C  0.07614502  0.54191014  0.94449999    -0.21300
C1144       C  0.07807918  0.52983170  0.92123128     0.24400
C1145       C  0.09886895  0.51436916  0.91672816    -0.18800
C1146       C  0.11670990  0.51044183  0.93542188    -0.08800
C1147       C  0.05704210  0.53205876  0.90317327    -0.19100
C1148       C  0.05913556  0.52738794  0.87839319    -0.23900
C1149       C  0.03759461  0.52600875  0.86080927     0.26500
C1150       C  0.04115449  0.51408506  0.83763591    -0.20700
C1151       C  0.02121270  0.51035082  0.82128238    -0.10300
C1152       C  0.99704133  0.51847814  0.82762653    -0.10900
C1153       C  0.99375863  0.53174951  0.85014039    -0.03800
C1154       C  0.01372782  0.53545116  0.86658114    -0.18900
H1155       H  0.09144721  0.54759762  0.98076195     0.10200
H1156       H  0.06039794  0.55402077  0.94847011     0.10300
H1157       H  0.10102646  0.50438532  0.89922830     0.09900
H1158       H  0.13231970  0.49835235  0.93109197     0.11000
H1159       H  0.03906965  0.53688957  0.91109178     0.11100
H1160       H  0.07733183  0.52299635  0.87066824     0.13000
H1161       H  0.05937092  0.50703347  0.83238173     0.09600
H1162       H  0.02483241  0.50094248  0.80367988     0.11600
H1163       H  0.97569617  0.53880981  0.85551383     0.08300
H1164       H  0.01017772  0.54561278  0.88373163     0.11000
C1165       C  0.95581360  0.74341237  0.76015629    -0.03600
C1166       C  0.97521380  0.76108138  0.76007258    -0.06200
C1167       C  0.97610501  0.77990973  0.74193195    -0.21300
C1168       C  0.95769135  0.78188452  0.72344098     0.24400
C1169       C  0.93805594  0.76457054  0.72354973    -0.18800
C1170       C  0.93709225  0.74574280  0.74176836    -0.08800
C1171       C  0.96055402  0.80153117  0.70389001    -0.19100
C1172       C  0.94184797  0.81025649  0.68946272    -0.23900
C1173       C  0.94535420  0.82961733  0.66966595     0.26500
C1174       C  0.92769285  0.83147517  0.65043750    -0.20700
C1175       C  0.93055273  0.84894154  0.63116133    -0.10300
C1176       C  0.95113862  0.86520053  0.63052210    -0.10900
C1177       C  0.96849314  0.86376108  0.65025664    -0.03800
C1178       C  0.96556165  0.84631752  0.66960657    -0.18900
H1179       H  0.99002342  0.76074300  0.77363012     0.10200
H1180       H  0.99144326  0.79300215  0.74228988     0.10300
H1181       H  0.92376108  0.76496464  0.70930823     0.09900
H1182       H  0.92188366  0.73251139  0.74120381     0.11000
H1183       H  0.97912213  0.80902121  0.70148501     0.11100
H1184       H  0.92328692  0.80265845  0.69167886     0.13000
H1185       H  0.91178051  0.81909672  0.65009924     0.09600
H1186       H  0.91671253  0.84960620  0.61641771     0.11600
H1187       H  0.98444974  0.87585297  0.65115863     0.08300
H1188       H  0.97910736  0.84630465  0.68456582     0.11000
C1189       C  0.90592668  0.69979111  0.82776765    -0.03600
C1190       C  0.88347216  0.71250075  0.82259847    -0.06200
C1191       C  0.86365418  0.71205444  0.83960540    -0.21300
C1192       C  0.86538848  0.69854045  0.86208105     0.24400
C1193       C  0.88747130  0.68512391  0.86700393    -0.18800
C1194       C  0.90737874  0.68565291  0.84998090    -0.08800
C1195       C  0.84426723  0.70010771  0.88022791    -0.19100
C1196       C  0.84025290  0.68347609  0.89883259    -0.23900
C1197       C  0.81978633  0.68574401  0.91769904     0.26500
C1198       C  0.82161171  0.67187613  0.93996966    -0.20700
C1199       C  0.80340537  0.67386225  0.95865864    -0.10300
C1200       C  0.78279396  0.68989768  0.95570778    -0.10900
C1201       C  0.78041344  0.70298487  0.93286232    -0.03800
C1202       C  0.79861538  0.70095739  0.91412134    -0.18900
H1203       H  0.88102618  0.72292623  0.80539093     0.10200
H1204       H  0.84686269  0.72245214  0.83518979     0.10300
H1205       H  0.88991162  0.67485469  0.88429824     0.09900
H1206       H  0.92407387  0.67551552  0.85478036     0.11000
H1207       H  0.83169387  0.71586559  0.87799767     0.11100
H1208       H  0.85283196  0.66769285  0.90093630     0.13000
H1209       H  0.83747713  0.65970270  0.94315358     0.09600
H1210       H  0.80599126  0.66309243  0.97553696     0.11600
H1211       H  0.76437808  0.71473287  0.92921485     0.08300
H1212       H  0.79574561  0.71116984  0.89686730     0.11000
C1213       C  0.11716102  0.69216898  0.95833961    -0.03600
C1214       C  0.12531564  0.69755970  0.93388996    -0.06200
C1215       C  0.10939901  0.69446347  0.91340865    -0.21300
C1216       C  0.08481431  0.68630602  0.91686439     0.24400
C1217       C  0.07697578  0.67992225  0.94128169    -0.18800
C1218       C  0.09306264  0.68275442  0.96174455    -0.08800
C1219       C  0.06811087  0.68517550  0.89455358    -0.19100
C1220       C  0.04301230  0.68537124  0.89589622    -0.23900
C1221       C  0.02635021  0.68669130  0.87357864     0.26500
C1222       C  0.00150151  0.67904922  0.87611421    -0.20700
C1223       C  0.98462763  0.68181409  0.85630858    -0.10300
C1224       C  0.99204537  0.69266204  0.83352534    -0.10900
C1225       C  0.01717371  0.69964042  0.83072935    -0.03800
C1226       C  0.03406604  0.69686196  0.85050713    -0.18900
H1227       H  0.14400692  0.70436132  0.93062957     0.10200
H1228       H  0.11613467  0.69913508  0.89483389     0.10300
H1229       H  0.05852498  0.67274228  0.94479809     0.09900
H1230       H  0.08634951  0.67828252  0.98028782     0.11000
H1231       H  0.07703808  0.68532338  0.87629511     0.11100
H1232       H  0.03395507  0.68505101  0.91407071     0.13000
H1233       H  0.99498288  0.67125957  0.89368462     0.09600
H1234       H  0.96559929  0.67628504  0.85931686     0.11600
H1235       H  0.02384495  0.70758978  0.81331773     0.08300
H1236       H  0.05285251  0.70352269  0.84780457     0.11000
C1237       C  0.94459211  0.73657834  0.23523872    -0.03600
C1238       C  0.92453503  0.73978310  0.25200836    -0.06200
C1239       C  0.92296999  0.76073345  0.26758022    -0.21300
C1240       C  0.94158667  0.77900620  0.26721027     0.24400
C1241       C  0.96160109  0.77616356  0.25041299    -0.18800
C1242       C  0.96312736  0.75522445  0.23465807    -0.08800
C1243       C  0.93923032  0.80074095  0.28448331    -0.19100
C1244       C  0.95882553  0.81367547  0.29334195    -0.23900
C1245       C  0.95624681  0.83340425  0.31287203     0.26500
C1246       C  0.97589984  0.83730819  0.32964784    -0.20700
C1247       C  0.97344438  0.85440031  0.34934780    -0.10300
C1248       C  0.95140366  0.86844005  0.35263489    -0.10900
C1249       C  0.93210392  0.86521644  0.33501665    -0.03800
C1250       C  0.93453913  0.84797683  0.31540511    -0.18900
H1251       H  0.90995878  0.72588090  0.25307341     0.10200
H1252       H  0.90727730  0.76247843  0.28025929     0.10300
H1253       H  0.97600110  0.79019752  0.24915590     0.09900
H1254       H  0.97900717  0.75402766  0.22236504     0.11000
H1255       H  0.92077780  0.80477638  0.29181623     0.11100
H1256       H  0.97754848  0.80810036  0.28798532     0.13000
H1257       H  0.99294293  0.82651712  0.32799475     0.09600
H1258       H  0.98870948  0.85636531  0.36244026     0.11600
H1259       H  0.91476864  0.87532822  0.33624856     0.08300
H1260       H  0.91930437  0.84606971  0.30230250     0.11000
C1261       C  0.11469867  0.68797835  0.04677994    -0.03600
C1262       C  0.12135802  0.69206892  0.07190520    -0.06200
C1263       C  0.10462061  0.68702921  0.09133417    -0.21300
C1264       C  0.08061070  0.67803430  0.08628368     0.24400
C1265       C  0.07423657  0.67293031  0.06115605    -0.18800
C1266       C  0.09122322  0.67769368  0.04167464    -0.08800
C1267       C  0.06301906  0.67527863  0.10787978    -0.19100
C1268       C  0.03808595  0.67254829  0.10597380    -0.23900
C1269       C  0.02079975  0.67428728  0.12795772     0.26500
C1270       C  0.99671921  0.66425948  0.12616003    -0.20700
C1271       C  0.97921081  0.66785097  0.14542808    -0.10300
C1272       C  0.98523764  0.68187681  0.16687080    -0.10900
C1273       C  0.00964474  0.69111895  0.16901574    -0.03800
C1274       C  0.02708008  0.68758208  0.14982353    -0.18900
H1275       H  0.13954567  0.69936278  0.07657440     0.10200
H1276       H  0.11028780  0.69085551  0.11043636     0.10300
H1277       H  0.05622984  0.66543749  0.05631399     0.09900
H1278       H  0.08564607  0.67403427  0.02260103     0.11000
H1279       H  0.07112493  0.67699135  0.12641164     0.11100
H1280       H  0.02965102  0.66993781  0.08771904     0.13000
H1281       H  0.99124854  0.65404705  0.10952806     0.09600
H1282       H  0.96073946  0.66043711  0.14296757     0.11600
H1283       H  0.01532729  0.70149488  0.18543906     0.08300
H1284       H  0.04510534  0.69622228  0.15192912     0.11000
C1285       C  0.89818267  0.68216360  0.17367836    -0.03600
C1286       C  0.87452328  0.69207004  0.17942742    -0.06200
C1287       C  0.85430625  0.68812684  0.16348991    -0.21300
C1288       C  0.85708791  0.67417531  0.14137877     0.24400
C1289       C  0.88025314  0.66270824  0.13650323    -0.18800
C1290       C  0.90054218  0.66671073  0.15247037    -0.08800
C1291       C  0.83563323  0.67304954  0.12370545    -0.19100
C1292       C  0.83800127  0.66823104  0.09895305    -0.23900
C1293       C  0.81768402  0.67141477  0.08006864     0.26500
C1294       C  0.82373025  0.66851109  0.05456304    -0.20700
C1295       C  0.80617263  0.67350435  0.03585350    -0.10300
C1296       C  0.78213949  0.68162660  0.04216335    -0.10900
C1297       C  0.77567752  0.68370550  0.06760995    -0.03800
C1298       C  0.79313915  0.67853397  0.08638041    -0.18900
H1299       H  0.87154810  0.70315073  0.19614577     0.10200
H1300       H  0.83657542  0.69672039  0.16809289     0.10300
H1301       H  0.88299327  0.65087793  0.12028824     0.09900
H1302       H  0.91817567  0.65830423  0.14760525     0.11000
H1303       H  0.81776821  0.67873650  0.13123037     0.11100
H1304       H  0.85625206  0.66357067  0.09156086     0.13000
H1305       H  0.84238476  0.66304623  0.04900685     0.09600
H1306       H  0.81178896  0.67206030  0.01647775     0.11600
H1307       H  0.75709857  0.68957082  0.07300054     0.08300
H1308       H  0.78717995  0.68062988  0.10559749     0.11000
C1309       C  0.68114907  0.59615534  0.85750265    -0.03600
C1310       C  0.69618909  0.57463279  0.85479936    -0.06200
C1311       C  0.71344912  0.57256832  0.83524673    -0.21300
C1312       C  0.71654713  0.59213897  0.81804633     0.24400
C1313       C  0.70100853  0.61329740  0.82001630    -0.18800
C1314       C  0.68357496  0.61532143  0.83947854    -0.08800
C1315       C  0.73626288  0.58997532  0.79848985    -0.19100
C1316       C  0.74823577  0.61000987  0.78902634    -0.23900
C1317       C  0.76917625  0.60840179  0.77072767     0.26500
C1318       C  0.78583207  0.62846480  0.76911422    -0.20700
C1319       C  0.80561051  0.62797570  0.75204877    -0.10300
C1320       C  0.80912365  0.60760719  0.73564062    -0.10900
C1321       C  0.79232414  0.58742706  0.73734872    -0.03800
C1322       C  0.77260948  0.58786428  0.75459485    -0.18900
H1323       H  0.69491771  0.55951824  0.86827506     0.10200
H1324       H  0.72498050  0.55592916  0.83403484     0.10300
H1325       H  0.70230727  0.62841548  0.80658175     0.09900
H1326       H  0.67273164  0.63229793  0.84038419     0.11000
H1327       H  0.74236723  0.57128190  0.79335980     0.11100
H1328       H  0.74359504  0.62848521  0.79614075     0.13000
H1329       H  0.78368432  0.64454434  0.78130496     0.09600
H1330       H  0.81831900  0.64364776  0.75164613     0.11600
H1331       H  0.79420889  0.57096068  0.72585685     0.08300
H1332       H  0.75994030  0.57219910  0.75492665     0.11000
C1333       C  0.61369930  0.64129442  0.90925815    -0.03600
C1334       C  0.59073339  0.63492611  0.91999382    -0.06200
C1335       C  0.57208381  0.65294140  0.92328567    -0.21300
C1336       C  0.57595463  0.67789522  0.91615308     0.24400
C1337       C  0.59910161  0.68443307  0.90559037    -0.18800
C1338       C  0.61774225  0.66630953  0.90222002    -0.08800
C1339       C  0.55482597  0.69589912  0.91866037    -0.19100
C1340       C  0.55727800  0.72099483  0.91843741    -0.23900
C1341       C  0.53567474  0.73856206  0.91882656     0.26500
C1342       C  0.53856259  0.76237839  0.90821661    -0.20700
C1343       C  0.51831021  0.77876367  0.90631530    -0.10300
C1344       C  0.49461101  0.77179666  0.91513706    -0.10900
C1345       C  0.49213212  0.74866336  0.92734151    -0.03800
C1346       C  0.51238704  0.73215613  0.92911421    -0.18900
H1347       H  0.58673507  0.61584640  0.92502212     0.10200
H1348       H  0.55438710  0.64725724  0.93117161     0.10300
H1349       H  0.60275761  0.70324850  0.89919108     0.09900
H1350       H  0.63528339  0.67184729  0.89391968     0.11000
H1351       H  0.53638460  0.68787102  0.92032871     0.11100
H1352       H  0.57561909  0.72918073  0.91658197     0.13000
H1353       H  0.55639916  0.76806560  0.90066506     0.09600
H1354       H  0.52122227  0.79683565  0.89765340     0.11600
H1355       H  0.47443444  0.74287231  0.93484922     0.08300
H1356       H  0.50963562  0.71442330  0.93846058     0.11000
C1357       C  0.27758214  0.64698649  0.91168107    -0.03600
C1358       C  0.27142248  0.67170139  0.90492961    -0.06200
C1359       C  0.28817445  0.69124335  0.90877193    -0.21300
C1360       C  0.31167552  0.68679174  0.91936886     0.24400
C1361       C  0.31765135  0.66221006  0.92695693    -0.18800
C1362       C  0.30073066  0.64257434  0.92319988    -0.08800
C1363       C  0.32904888  0.70843673  0.92178767    -0.19100
C1364       C  0.35399772  0.70641462  0.92435002    -0.23900
C1365       C  0.37149597  0.72813908  0.92328164     0.26500
C1366       C  0.39618747  0.72471089  0.93131031    -0.20700
C1367       C  0.41387714  0.74371729  0.92845448    -0.10300
C1368       C  0.40747277  0.76657460  0.91712104    -0.10900
C1369       C  0.38255783  0.77036736  0.90987809    -0.03800
C1370       C  0.36483285  0.75144735  0.91281264    -0.18900
H1371       H  0.25349832  0.67609850  0.89676325     0.10200
H1372       H  0.28283005  0.70995875  0.90303837     0.10300
H1373       H  0.33523685  0.65798004  0.93585732     0.09900
H1374       H  0.30605305  0.62389834  0.92886074     0.11000
H1375       H  0.32073712  0.72686291  0.92004263     0.11100
H1376       H  0.36233632  0.68801711  0.92638687     0.13000
H1377       H  0.40197742  0.70701959  0.93938287     0.09600
H1378       H  0.43273425  0.74004601  0.93429933     0.11600
H1379       H  0.37674298  0.78791554  0.90155689     0.08300
H1380       H  0.34626707  0.75504695  0.90591502     0.11000
C1381       C  0.49195667  0.42901813  0.90776168    -0.03600
C1382       C  0.51631900  0.42002274  0.90434903    -0.06200
C1383       C  0.53667581  0.43590161  0.90730821    -0.21300
C1384       C  0.53322173  0.46119323  0.91361048     0.24400
C1385       C  0.50873621  0.47005780  0.91754281    -0.18800
C1386       C  0.48837290  0.45402726  0.91480392    -0.08800
C1387       C  0.55553642  0.47770075  0.91401044    -0.19100
C1388       C  0.55546766  0.50166987  0.92191020    -0.23900
C1389       C  0.57708929  0.51890588  0.91935986     0.26500
C1390       C  0.57638324  0.54180986  0.93216193    -0.20700
C1391       C  0.59489660  0.55974278  0.92844023    -0.10300
C1392       C  0.61450331  0.55551023  0.91139362    -0.10900
C1393       C  0.61588562  0.53194818  0.89961017    -0.03800
C1394       C  0.59738507  0.51400172  0.90333288    -0.18900
H1395       H  0.51960115  0.40072198  0.89905761     0.10200
H1396       H  0.55521213  0.42848154  0.90410527     0.10300
H1397       H  0.50491959  0.48942920  0.92186702     0.09900
H1398       H  0.46979575  0.46151860  0.91703518     0.11000
H1399       H  0.57272783  0.46950706  0.90715431     0.11100
H1400       H  0.53883494  0.50942693  0.93045015     0.13000
H1401       H  0.56112035  0.54610292  0.94477911     0.09600
H1402       H  0.59316977  0.57704496  0.93860923     0.28400
H1403       H  0.63108918  0.52724145  0.88715368     0.08300
H1404       H  0.59883632  0.49678356  0.89283801     0.11000
C1405       C  0.27614674  0.55848600  0.90899855    -0.03600
C1406       C  0.26951818  0.53445063  0.90064855    -0.06200
C1407       C  0.28637628  0.51450567  0.90198802    -0.21300
C1408       C  0.31041801  0.51784556  0.91168444     0.24400
C1409       C  0.31681085  0.54169118  0.92097017    -0.18800
C1410       C  0.29981744  0.56171879  0.91966315    -0.08800
C1411       C  0.32790486  0.49594547  0.91114368    -0.19100
C1412       C  0.35262273  0.49704408  0.91566781    -0.23900
C1413       C  0.37003100  0.47529292  0.91269076     0.26500
C1414       C  0.39349226  0.47625681  0.92420516    -0.20700
C1415       C  0.41100207  0.45704502  0.92074628    -0.10300
C1416       C  0.40570797  0.43632869  0.90538918    -0.10900
C1417       C  0.38199736  0.43520539  0.89415879    -0.03800
C1418       C  0.36449228  0.45442527  0.89760576    -0.18900
H1419       H  0.25122394  0.53095811  0.89296326     0.10200
H1420       H  0.28067395  0.49639552  0.89497483     0.10300
H1421       H  0.33484317  0.54519644  0.92913402     0.09900
H1422       H  0.30554208  0.57986821  0.92636699     0.11000
H1423       H  0.31985955  0.47810787  0.90599473     0.11100
H1424       H  0.36084593  0.51455484  0.92152365     0.13000
H1425       H  0.39841868  0.49210611  0.93581203     0.09600
H1426       H  0.42882719  0.45891828  0.92980001     0.11600
H1427       H  0.37675143  0.41945306  0.88263696     0.08300
H1428       H  0.34695220  0.45300720  0.88782679     0.11000
C1429       C  0.58723638  0.86055191  0.99774264    -0.03600
C1430       C  0.58848587  0.84456016  0.97678462    -0.06200
C1431       C  0.60698913  0.82621208  0.97481332    -0.21300
C1432       C  0.62484408  0.82318549  0.99372765     0.24400
C1433       C  0.62362911  0.83888278  0.01486969    -0.18800
C1434       C  0.60510971  0.85730511  0.01685540    -0.08800
C1435       C  0.64330418  0.80245249  0.99133627    -0.19100
C1436       C  0.66518294  0.80162090  0.00369679    -0.23900
C1437       C  0.68284825  0.78007732  0.00228892     0.26500
C1438       C  0.70004209  0.77669256  0.02176581    -0.20700
C1439       C  0.71630224  0.75616833  0.02191127    -0.10300
C1440       C  0.71594408  0.73840431  0.00233805    -0.10900
C1441       C  0.69930452  0.74247729  0.98233566    -0.03800
C1442       C  0.68302556  0.76297503  0.98224015    -0.18900
H1443       H  0.57482374  0.84610832  0.96194030     0.10200
H1444       H  0.60722951  0.81417662  0.95846920     0.10300
H1445       H  0.63637723  0.83653813  0.03037227     0.09900
H1446       H  0.60469078  0.86817861  0.03385722     0.11000
H1447       H  0.63831464  0.78722463  0.97892403     0.11100
H1448       H  0.67014378  0.81686806  0.01611592     0.13000
H1449       H  0.70060952  0.78978841  0.03726028     0.09600
H1450       H  0.72883736  0.75465302  0.03756685     0.11600
H1451       H  0.69879710  0.72952914  0.96672223     0.08300
H1452       H  0.67083773  0.76533337  0.96629991     0.11000
C1453       C  0.58876075  0.09645489  0.75823641    -0.03600
C1454       C  0.58991142  0.07543478  0.74235039    -0.06200
C1455       C  0.60868167  0.07300894  0.72436965    -0.21300
C1456       C  0.62720579  0.09122892  0.72207461     0.24400
C1457       C  0.62653065  0.11205372  0.73816193    -0.18800
C1458       C  0.60762467  0.11461561  0.75603958    -0.08800
C1459       C  0.64589359  0.08861307  0.70168788    -0.19100
C1460       C  0.66843497  0.09954687  0.70214388    -0.23900
C1461       C  0.68621537  0.09871769  0.68076528     0.26500
C1462       C  0.70430911  0.11743518  0.67900179    -0.20700
C1463       C  0.72054206  0.11840637  0.65853053    -0.10300
C1464       C  0.71921826  0.10042900  0.63921213    -0.10900
C1465       C  0.70166350  0.08108086  0.64164025    -0.03800
C1466       C  0.68543602  0.08014655  0.66211327    -0.18900
H1467       H  0.57589584  0.06097813  0.74361479     0.10200
H1468       H  0.60867849  0.05683668  0.71212809     0.10300
H1469       H  0.64009326  0.12686257  0.73658179     0.09900
H1470       H  0.60818282  0.13099977  0.76774815     0.11000
H1471       H  0.64045288  0.07750032  0.68562007     0.11100
H1472       H  0.67379546  0.11055487  0.71833455     0.13000
H1473       H  0.70552811  0.13179596  0.69328094     0.09600
H1474       H  0.73363581  0.13357327  0.65820838     0.11600
H1475       H  0.70033975  0.06671809  0.62738088     0.08300
H1476       H  0.67246583  0.06478316  0.66316845     0.11000
C1477       C  0.53929226  0.93125635  0.95620699    -0.03600
C1478       C  0.51532568  0.94038533  0.95060631    -0.06200
C1479       C  0.51192981  0.95896896  0.93227281    -0.21300
C1480       C  0.53240678  0.96899868  0.91934115     0.24400
C1481       C  0.55627559  0.95941384  0.92459244    -0.18800
C1482       C  0.55966808  0.94105349  0.94288650    -0.08800
C1483       C  0.52849871  0.98880054  0.89994976    -0.19100
C1484       C  0.54639342  0.00546073  0.89406471    -0.23900
C1485       C  0.54519705  0.02420353  0.87338972     0.26500
C1486       C  0.56763360  0.03532777  0.86595278    -0.20700
C1487       C  0.56824170  0.05262386  0.84641738    -0.10300
C1488       C  0.54635385  0.05948790  0.83375727    -0.10900
C1489       C  0.52365667  0.04901134  0.84150701    -0.03800
C1490       C  0.52305351  0.03136517  0.86107985    -0.18900
H1491       H  0.49914447  0.93302099  0.96014872     0.10200
H1492       H  0.49328714  0.96568611  0.92833437     0.10300
H1493       H  0.57249655  0.96578254  0.91443303     0.09900
H1494       H  0.57847180  0.93487860  0.94678062     0.11000
H1495       H  0.51067130  0.98940677  0.89046078     0.11100
H1496       H  0.56365576  0.00498919  0.90460013     0.13000
H1497       H  0.58495184  0.03040913  0.87515151     0.09600
H1498       H  0.58596175  0.06077614  0.84131393     0.11600
H1499       H  0.50650281  0.05405015  0.83209552     0.08300
H1500       H  0.50529559  0.02360233  0.86649763     0.11000
C1501       C  0.71280002  0.10621968  0.36116315    -0.03600
C1502       C  0.69850178  0.12812460  0.35770839    -0.06200
C1503       C  0.68162144  0.13025796  0.33789638    -0.21300
C1504       C  0.67785236  0.11028713  0.32133210     0.24400
C1505       C  0.69192869  0.08826774  0.32464490    -0.18800
C1506       C  0.70913523  0.08622807  0.34430503    -0.08800
C1507       C  0.65925817  0.11328971  0.30081287    -0.19100
C1508       C  0.64676853  0.09399064  0.29058619    -0.23900
C1509       C  0.62689151  0.09703648  0.27130317     0.26500
C1510       C  0.60889157  0.07828081  0.26896140    -0.20700
C1511       C  0.58969811  0.08047237  0.25141689    -0.10300
C1512       C  0.58800136  0.10136325  0.23535574    -0.10900
C1513       C  0.60646969  0.11994828  0.23737716    -0.03800
C1514       C  0.62564213  0.11778617  0.25508498    -0.18900
H1515       H  0.70038744  0.14373006  0.37050850     0.10200
H1516       H  0.67107750  0.14745740  0.33581095     0.10300
H1517       H  0.68988026  0.07260981  0.31197682     0.09900
H1518       H  0.71891841  0.06868826  0.34629484     0.11000
H1519       H  0.65445598  0.13226366  0.29534621     0.11100
H1520       H  0.64993851  0.07525637  0.29781091     0.13000
H1521       H  0.60943486  0.06199235  0.28105152     0.09600
H1522       H  0.57586762  0.06581425  0.25051059     0.11600
H1523       H  0.60637379  0.13639972  0.22570641     0.08300
H1524       H  0.63956842  0.13231879  0.25578116     0.11000
C1525       C  0.54460371  0.93593299  0.03904201    -0.03600
C1526       C  0.56615499  0.94984172  0.04390595    -0.06200
C1527       C  0.56557658  0.96989186  0.06059602    -0.21300
C1528       C  0.54352969  0.97655389  0.07312837     0.24400
C1529       C  0.52169174  0.96292706  0.06797119    -0.18800
C1530       C  0.52223625  0.94287787  0.05089087    -0.08800
C1531       C  0.54479144  0.99779758  0.09120158    -0.19100
C1532       C  0.52768001  0.00327819  0.10896430    -0.23900
C1533       C  0.53180006  0.02320424  0.12814602     0.26500
C1534       C  0.51133394  0.03512356  0.13954951    -0.20700
C1535       C  0.51488712  0.05358275  0.15793734    -0.10300
C1536       C  0.53903122  0.06031286  0.16551703    -0.10900
C1537       C  0.55943301  0.04819047  0.15418466    -0.03800
C1538       C  0.55589955  0.02979217  0.13598854    -0.18900
H1539       H  0.58354497  0.94532031  0.03461137     0.10200
H1540       H  0.58263158  0.98009970  0.06394777     0.10300
H1541       H  0.50419887  0.96768731  0.07684365     0.09900
H1542       H  0.50533565  0.93251031  0.04731020     0.11000
H1543       H  0.56147933  0.00911873  0.09020209     0.11100
H1544       H  0.51038086  0.99294426  0.10984189     0.13000
H1545       H  0.49255298  0.03019063  0.13416049     0.09600
H1546       H  0.49870999  0.06222040  0.16647680     0.11600
H1547       H  0.57832733  0.05302700  0.15915137     0.08300
H1548       H  0.57221385  0.02050721  0.12849288     0.11000
C1549       C  0.71008778  0.46090748  0.99621073    -0.03600
C1550       C  0.69516963  0.45851381  0.01781853    -0.06200
C1551       C  0.67675039  0.44024305  0.01939715    -0.21300
C1552       C  0.67237294  0.42394537  0.99931345     0.24400
C1553       C  0.68749314  0.42580536  0.97783124    -0.18800
C1554       C  0.70606806  0.44406646  0.97626249    -0.08800
C1555       C  0.65228425  0.40502596  0.00193785    -0.19100
C1556       C  0.64123604  0.39339258  0.98248436    -0.23900
C1557       C  0.62089256  0.37480050  0.98571382     0.26500
C1558       C  0.60425160  0.37064019  0.96591252    -0.20700
C1559       C  0.58485004  0.35340691  0.96841076    -0.10300
C1560       C  0.58192532  0.33930457  0.99055352    -0.10900
C1561       C  0.59866730  0.34367955  0.01041081    -0.03800
C1562       C  0.61796539  0.36094379  0.00792845    -0.18900
H1563       H  0.69755847  0.47118291  0.03347514     0.10200
H1564       H  0.66556516  0.43913451  0.03628516     0.10300
H1565       H  0.68522179  0.41313820  0.96220592     0.09900
H1566       H  0.71664475  0.44494130  0.95910697     0.11000
H1567       H  0.64550095  0.40160965  0.02079906     0.11100
H1568       H  0.64627728  0.39845065  0.96344381     0.13000
H1569       H  0.60604044  0.38102877  0.94855842     0.09600
H1570       H  0.57203586  0.35105951  0.95293827     0.11600
H1571       H  0.59690568  0.33443053  0.02827844     0.08300
H1572       H  0.63065232  0.36312671  0.02348721     0.11000
C1573       C  0.54011226  0.26524668  0.03371133    -0.03600
C1574       C  0.56212443  0.25170835  0.03828370    -0.06200
C1575       C  0.56243903  0.23189651  0.05529205    -0.21300
C1576       C  0.54084676  0.22507185  0.06839534     0.24400
C1577       C  0.51848624  0.23804426  0.06324839    -0.18800
C1578       C  0.51813949  0.25787509  0.04589899    -0.08800
C1579       C  0.54305241  0.20444612  0.08712734    -0.19100
C1580       C  0.52664687  0.19979640  0.10572495    -0.23900
C1581       C  0.53130552  0.18051165  0.12545435     0.26500
C1582       C  0.51107778  0.16925073  0.13770245    -0.20700
C1583       C  0.51496585  0.15145089  0.15666386    -0.10300
C1584       C  0.53922834  0.14470020  0.16401846    -0.10900
C1585       C  0.55944878  0.15618969  0.15186912    -0.03800
C1586       C  0.55556946  0.17394540  0.13300782    -0.18900
H1587       H  0.57922431  0.25639816  0.02861561     0.10200
H1588       H  0.57984430  0.22209910  0.05853315     0.10300
H1589       H  0.50126886  0.23299242  0.07241888     0.09900
H1590       H  0.50086954  0.26781704  0.04245940     0.11000
H1591       H  0.55981330  0.19308120  0.08600580     0.11100
H1592       H  0.50940571  0.21036366  0.10685480     0.13000
H1593       H  0.49219348  0.17419698  0.13253059     0.09600
H1594       H  0.49892074  0.14335949  0.16583190     0.11600
H1595       H  0.57841869  0.15131590  0.15668500     0.08300
H1596       H  0.57170317  0.18276034  0.12473778     0.11000
C1597       C  0.53984361  0.14433877  0.82569140    -0.03600
C1598       C  0.54592707  0.16877436  0.81815954    -0.06200
C1599       C  0.54253829  0.18894128  0.83442030    -0.21300
C1600       C  0.53293992  0.18531594  0.85861738     0.24400
C1601       C  0.52596071  0.16096914  0.86590465    -0.18800
C1602       C  0.52944957  0.14070249  0.84959002    -0.08800
C1603       C  0.53068983  0.20752711  0.87533410    -0.19100
C1604       C  0.52871066  0.20622252  0.90051127    -0.23900
C1605       C  0.52895124  0.22839783  0.91749252     0.26500
C1606       C  0.52294533  0.22481430  0.94288811    -0.20700
C1607       C  0.52477215  0.24445738  0.96007544    -0.10300
C1608       C  0.53279627  0.26817239  0.95227839    -0.10900
C1609       C  0.53826902  0.27203795  0.92682160    -0.03800
C1610       C  0.53642389  0.25241763  0.90959862    -0.18900
H1611       H  0.55332740  0.17240728  0.79962758     0.10200
H1612       H  0.54778293  0.20746886  0.82813948     0.10300
H1613       H  0.51777615  0.15735147  0.88406118     0.09900
H1614       H  0.52458954  0.12212758  0.85597674     0.11000
H1615       H  0.53179040  0.22562115  0.86627443     0.11100
H1616       H  0.52765255  0.18805636  0.90947757     0.13000
H1617       H  0.51731566  0.20655764  0.94959937     0.09600
H1618       H  0.52086337  0.24075209  0.97964759     0.11600
H1619       H  0.54437012  0.29018718  0.92026643     0.08300
H1620       H  0.54170625  0.25620879  0.89043837     0.11000
C1621       C  0.31286419  0.09511369  0.76709370    -0.03600
C1622       C  0.31204199  0.07440690  0.75075921    -0.06200
C1623       C  0.29331920  0.07222991  0.73270042    -0.21300
C1624       C  0.27491079  0.09074662  0.73029863     0.24400
C1625       C  0.27482529  0.11082870  0.74728824    -0.18800
C1626       C  0.29348643  0.11298937  0.76545217    -0.08800
C1627       C  0.25590600  0.08828987  0.71018223    -0.19100
C1628       C  0.24445872  0.10807860  0.69940005    -0.23900
C1629       C  0.22598313  0.10575477  0.67871890     0.26500
C1630       C  0.22207248  0.12611591  0.66256425    -0.20700
C1631       C  0.20479017  0.12462223  0.64300801    -0.10300
C1632       C  0.19044166  0.10291216  0.63934265    -0.10900
C1633       C  0.19444413  0.08252986  0.65570269    -0.03800
C1634       C  0.21184165  0.08399247  0.67513459    -0.18900
H1635       H  0.32639890  0.06013328  0.75158237     0.10200
H1636       H  0.29359770  0.05631509  0.72012601     0.10300
H1637       H  0.26030601  0.12491700  0.74667290     0.09900
H1638       H  0.29245056  0.12897320  0.77767939     0.11000
H1639       H  0.25257081  0.06962999  0.70296481     0.11100
H1640       H  0.24971924  0.12685591  0.70498500     0.13000
H1641       H  0.23264430  0.14316862  0.66489327     0.09600
H1642       H  0.20257575  0.14055165  0.63063287     0.11600
H1643       H  0.18470147  0.06509356  0.65367794     0.08300
H1644       H  0.21385787  0.06806438  0.68748756     0.11000
C1645       C  0.31157794  0.86214212  0.99985378    -0.03600
C1646       C  0.31114373  0.84522280  0.97960649    -0.06200
C1647       C  0.29248734  0.82719412  0.97757432    -0.21300
C1648       C  0.27338744  0.82573560  0.99546028     0.24400
C1649       C  0.27333354  0.84292067  0.01544713    -0.18800
C1650       C  0.29207978  0.86090403  0.01757351    -0.08800
C1651       C  0.25484510  0.80518320  0.99330887    -0.19100
C1652       C  0.23241752  0.80536079  0.00472956    -0.23900
C1653       C  0.21469729  0.78402041  0.00389237     0.26500
C1654       C  0.19713194  0.78168106  0.02321909    -0.20700
C1655       C  0.18057137  0.76156951  0.02381761    -0.10300
C1656       C  0.18096886  0.74319872  0.00484442    -0.10900
C1657       C  0.19809130  0.74614556  0.98499518    -0.03800
C1658       C  0.21472097  0.76621731  0.98448122    -0.18900
H1659       H  0.32571944  0.84561822  0.96554938     0.10200
H1660       H  0.29311052  0.81416869  0.96202113     0.10300
H1661       H  0.25936690  0.84215361  0.03003542     0.09900
H1662       H  0.29106898  0.87327696  0.03346750     0.11000
H1663       H  0.26025153  0.78915753  0.98204549     0.11100
H1664       H  0.22696368  0.82133656  0.01602471     0.13000
H1665       H  0.19649222  0.79529911  0.03825644     0.09600
H1666       H  0.16781196  0.76079793  0.03937791     0.11600
H1667       H  0.19874310  0.73261377  0.96988526     0.08300
H1668       H  0.22732564  0.76775160  0.96873213     0.11000
C1669       C  0.36253534  0.92991006  0.95852794    -0.03600
C1670       C  0.35727941  0.92293110  0.93369806    -0.06200
C1671       C  0.36191091  0.93932954  0.91386612    -0.21300
C1672       C  0.37165589  0.96322767  0.91829324     0.24400
C1673       C  0.37782394  0.96994150  0.94305969    -0.18800
C1674       C  0.37336049  0.95336920  0.96294024    -0.08800
C1675       C  0.37433445  0.98047218  0.89652702    -0.19100
C1676       C  0.37468506  0.00562109  0.89843609    -0.23900
C1677       C  0.37288465  0.02272330  0.87641937     0.26500
C1678       C  0.38024416  0.04774118  0.87915963    -0.20700
C1679       C  0.37644211  0.06504514  0.85981833    -0.10300
C1680       C  0.36498857  0.05775393  0.83730765    -0.10900
C1681       C  0.35815286  0.03259365  0.83430298    -0.03800
C1682       C  0.36194610  0.01529847  0.85361938    -0.18900
H1683       H  0.34955393  0.90472622  0.92954590     0.10200
H1684       H  0.35726900  0.93350880  0.89498975     0.10300
H1685       H  0.38606437  0.98787319  0.94724304     0.09900
H1686       H  0.37778954  0.95922509  0.98178596     0.11000
H1687       H  0.37424280  0.97194925  0.87807398     0.11100
H1688       H  0.37512928  0.01430095  0.91680702     0.13000
H1689       H  0.38845724  0.05406254  0.89657093     0.09600
H1690       H  0.38157326  0.08434486  0.86297672     0.11600
H1691       H  0.34952555  0.02628640  0.81711127     0.08300
H1692       H  0.35531583  0.99644350  0.85084105     0.11000
C1693       C  0.17967719  0.46733014  0.00138394    -0.03600
C1694       C  0.19495928  0.46492807  0.98000157    -0.06200
C1695       C  0.21174916  0.44506648  0.97756359    -0.21300
C1696       C  0.21422210  0.42723220  0.99664574     0.24400
C1697       C  0.19889967  0.42921174  0.01797218    -0.18800
C1698       C  0.18179357  0.44899175  0.02032338    -0.08800
C1699       C  0.23282722  0.40679487  0.99345834    -0.19100
C1700       C  0.24541779  0.39649898  0.01273412    -0.23900
C1701       C  0.26574894  0.37781167  0.00913798     0.26500
C1702       C  0.28537694  0.37698106  0.02640003    -0.20700
C1703       C  0.30499249  0.35993842  0.02338463    -0.10300
C1704       C  0.30532999  0.34276568  0.00331943    -0.10900
C1705       C  0.28535181  0.34351554  0.98615539    -0.03800
C1706       C  0.26586339  0.36078568  0.98905316    -0.18900
H1707       H  0.19405273  0.47873979  0.96515041     0.10200
H1708       H  0.22326701  0.44394505  0.96090067     0.10300
H1709       H  0.19999443  0.41541789  0.03280146     0.09900
H1710       H  0.17082477  0.44982703  0.03724499     0.11000
H1711       H  0.23787683  0.40170218  0.97439849     0.11100
H1712       H  0.24218111  0.40345182  0.03160263     0.13000
H1713       H  0.28573448  0.38983293  0.04209963     0.09600
H1714       H  0.32000680  0.36004398  0.03692128     0.11600
H1715       H  0.28437557  0.33109555  0.97030177     0.08300
H1716       H  0.25072682  0.36051048  0.97568769     0.11000
C1717       C  0.35998672  0.14162430  0.83665831    -0.03600
C1718       C  0.38361995  0.15018676  0.84389716    -0.06200
C1719       C  0.38599402  0.16866609  0.86248062    -0.21300
C1720       C  0.36485178  0.17878851  0.87442526     0.24400
C1721       C  0.34124466  0.17019301  0.86700941    -0.18800
C1722       C  0.33890530  0.15175941  0.84865533    -0.08800
C1723       C  0.36781226  0.19902413  0.89358870    -0.19100
C1724       C  0.35004765  0.20453179  0.91071942    -0.23900
C1725       C  0.35055560  0.22606641  0.92851195     0.26500
C1726       C  0.32788469  0.23359251  0.93930979    -0.20700
C1727       C  0.32677150  0.25371043  0.95593630    -0.10300
C1728       C  0.34838026  0.26689231  0.96244956    -0.10900
C1729       C  0.37128445  0.25909941  0.95220851    -0.03800
C1730       C  0.37238960  0.23894844  0.93526692    -0.18900
H1731       H  0.40024953  0.14298298  0.83491063     0.10200
H1732       H  0.40440858  0.17510073  0.86752496     0.10300
H1733       H  0.32431854  0.17791513  0.87484617     0.09900
H1734       H  0.32038953  0.14536581  0.84402882     0.11000
H1735       H  0.38486858  0.20979072  0.89312578     0.11100
H1736       H  0.33342639  0.19313053  0.91141330     0.13000
H1737       H  0.31079298  0.22394641  0.93470577     0.09600
H1738       H  0.30890385  0.25874739  0.96393731     0.11600
H1739       H  0.38826394  0.26884669  0.95694232     0.08300
H1740       H  0.39031659  0.23344903  0.92779942     0.11000
C1741       C  0.18920200  0.10078089  0.36090558    -0.03600
C1742       C  0.20571737  0.08035248  0.35871842    -0.06200
C1743       C  0.22304602  0.07904116  0.33924308    -0.21300
C1744       C  0.22472898  0.09825632  0.32145617     0.24400
C1745       C  0.20827754  0.11873599  0.32333983    -0.18800
C1746       C  0.19075617  0.12001674  0.34283132    -0.08800
C1747       C  0.24350373  0.09571969  0.30105687    -0.19100
C1748       C  0.25278602  0.11509231  0.28789961    -0.23900
C1749       C  0.27279583  0.11198495  0.26879293     0.26500
C1750       C  0.28908189  0.13188456  0.26428524    -0.20700
C1751       C  0.30886168  0.12919896  0.24743579    -0.10300
C1752       C  0.31256448  0.10675261  0.23401624    -0.10900
C1753       C  0.29574274  0.08700740  0.23813530    -0.03800
C1754       C  0.27609194  0.08963878  0.25521806    -0.18900
H1755       H  0.20520434  0.06526763  0.37228277     0.10200
H1756       H  0.23538832  0.06298285  0.33822902     0.10300
H1757       H  0.20858557  0.13366237  0.30964467     0.09900
H1758       H  0.17880703  0.13624557  0.34344930     0.11000
H1759       H  0.25115222  0.07714234  0.29795511     0.11100
H1760       H  0.24702407  0.13403026  0.29250045     0.13000
H1761       H  0.28691833  0.14936297  0.27435571     0.09600
H1762       H  0.32155189  0.14471053  0.24502428     0.11600
H1763       H  0.29777497  0.06918451  0.22889716     0.08300
H1764       H  0.26350450  0.07408601  0.25767553     0.11000
C1765       C  0.36358301  0.14647327  0.16551600    -0.03600
C1766       C  0.37457427  0.14054500  0.14239829    -0.06200
C1767       C  0.37672002  0.15862608  0.12361628    -0.21300
C1768       C  0.36827402  0.18316546  0.12763765     0.24400
C1769       C  0.35805634  0.18942987  0.15113422    -0.18800
C1770       C  0.35581895  0.17127144  0.16986966    -0.08800
C1771       C  0.36846276  0.20089876  0.10621248    -0.19100
C1772       C  0.36810485  0.22597264  0.10873983    -0.23900
C1773       C  0.36559068  0.24339073  0.08712605     0.26500
C1774       C  0.35583591  0.26739801  0.09143262    -0.20700
C1775       C  0.35145160  0.28375736  0.07145980    -0.10300
C1776       C  0.35688022  0.27650165  0.04668571    -0.10900
C1777       C  0.36762237  0.25289168  0.04246270    -0.03800
C1778       C  0.37207258  0.23654715  0.06244656    -0.18900
H1779       H  0.38048694  0.12171971  0.13828321     0.10200
H1780       H  0.38451135  0.15327078  0.10563811     0.10300
H1781       H  0.35079992  0.20796507  0.15485236     0.09900
H1782       H  0.34753947  0.17655774  0.18763110     0.11000
H1783       H  0.36821422  0.19263228  0.08765472     0.11100
H1784       H  0.36832230  0.23416204  0.12735436     0.13000
H1785       H  0.35101695  0.27331082  0.11026556     0.09600
H1786       H  0.34372013  0.30206866  0.07544760     0.11600
H1787       H  0.37196653  0.24667964  0.02363877     0.08300
H1788       H  0.38050690  0.21861325  0.05833947     0.11000
C1789       C  0.36435795  0.06008078  0.16687979    -0.03600
C1790       C  0.38003384  0.06420726  0.14613882    -0.06200
C1791       C  0.38338485  0.04585389  0.12776598    -0.21300
C1792       C  0.37162172  0.02258959  0.12976667     0.24400
C1793       C  0.35683104  0.01785415  0.15105331    -0.18800
C1794       C  0.35337622  0.03630212  0.16939097    -0.08800
C1795       C  0.37362197  0.00480323  0.10833046    -0.19100
C1796       C  0.36870980  0.98014430  0.11004383    -0.23900
C1797       C  0.36735988  0.96282888  0.08813875     0.26500
C1798       C  0.35614263  0.93944052  0.09172181    -0.20700
C1799       C  0.35262294  0.92312326  0.07161369    -0.10300
C1800       C  0.36025996  0.92973111  0.04726729    -0.10900
C1801       C  0.37257721  0.95258448  0.04379982    -0.03800
C1802       C  0.37610169  0.96899621  0.06396079    -0.18900
H1803       H  0.38936077  0.08176296  0.14344485     0.10200
H1804       H  0.39493674  0.05004398  0.11163857     0.10300
H1805       H  0.34706953  0.00035735  0.15329775     0.09900
H1806       H  0.34183345  0.03184439  0.18539779     0.11000
H1807       H  0.37862554  0.01284564  0.09038219     0.11100
H1808       H  0.36424433  0.97226321  0.12823993     0.13000
H1809       H  0.34956643  0.93392693  0.11012202     0.09600
H1810       H  0.34385757  0.90528305  0.07521903     0.11600
H1811       H  0.37896270  0.95815422  0.02542560     0.08300
H1812       H  0.38556027  0.98640336  0.06029034     0.11000
C1813       C  0.40503073  0.01905751  0.33225301    -0.03600
C1814       C  0.41022061  0.02989352  0.35559349    -0.06200
C1815       C  0.39120094  0.03438234  0.37290526    -0.21300
C1816       C  0.36654714  0.02789730  0.36740600     0.24400
C1817       C  0.36109280  0.01789345  0.34362448    -0.18800
C1818       C  0.38019028  0.01344158  0.32626951    -0.08800
C1819       C  0.34742691  0.03113219  0.38732751    -0.19100
C1820       C  0.32699657  0.01670512  0.38906338    -0.23900
C1821       C  0.30974445  0.01681133  0.41093661     0.26500
C1822       C  0.28631210  0.00567705  0.40822867    -0.20700
C1823       C  0.27045309  0.00295347  0.42883425    -0.10300
C1824       C  0.27775103  0.01107965  0.45281166    -0.10900
C1825       C  0.30079149  0.02306108  0.45534174    -0.03800
C1826       C  0.31672096  0.02575809  0.43474692    -0.18900
H1827       H  0.42908064  0.03408081  0.36093752     0.10200
H1828       H  0.39591478  0.04217074  0.39103285     0.10300
H1829       H  0.34218967  0.01348728  0.33832021     0.09900
H1830       H  0.37553024  0.00558874  0.30816761     0.11000
H1831       H  0.35145259  0.04458432  0.40196249     0.11100
H1832       H  0.32313449  0.00324238  0.37436776     0.13000
H1833       H  0.28039848  0.99865678  0.39014467     0.09600
H1834       H  0.25253551  0.99424302  0.42595743     0.11600
H1835       H  0.30707710  0.02948342  0.47338237     0.08300
H1836       H  0.33480874  0.03389650  0.43796661     0.11000
C1837       C  0.44809890  0.83752163  0.86613260    -0.03600
C1838       C  0.46875401  0.85349869  0.86362927    -0.06200
C1839       C  0.47053605  0.87030302  0.84368943    -0.21300
C1840       C  0.45152412  0.87206256  0.82582804     0.24400
C1841       C  0.43071598  0.85632254  0.82819028    -0.18800
C1842       C  0.42898751  0.83929136  0.84811095    -0.08800
C1843       C  0.45446451  0.89018365  0.80486471    -0.19100
C1844       C  0.43522162  0.90021151  0.79212895    -0.23900
C1845       C  0.43847410  0.91986636  0.77267057     0.26500
C1846       C  0.41935934  0.93738262  0.76901151    -0.20700
C1847       C  0.42216409  0.95683306  0.75175680    -0.10300
C1848       C  0.44394198  0.95903524  0.73715257    -0.10900
C1849       C  0.46284780  0.94092057  0.74038214    -0.03800
C1850       C  0.46011695  0.92159401  0.75789972    -0.18900
H1851       H  0.48370920  0.85287235  0.87722809     0.10200
H1852       H  0.48679134  0.88216117  0.84235112     0.10300
H1853       H  0.41589353  0.85676261  0.81449081     0.09900
H1854       H  0.41255652  0.82784060  0.84908664     0.11000
H1855       H  0.47316707  0.89682069  0.80104201     0.11100
H1856       H  0.41631358  0.89551558  0.79749805     0.13000
H1857       H  0.40242825  0.93641441  0.78003056     0.09600
H1858       H  0.40729373  0.97047140  0.74996282     0.11600
H1859       H  0.48007358  0.94159304  0.73004068     0.08300
H1860       H  0.47498924  0.90799843  0.75975338     0.11000
C1861       C  0.40316110  0.01176542  0.67029618    -0.03600
C1862       C  0.37873550  0.00480086  0.67668039    -0.06200
C1863       C  0.35912013  0.00871348  0.66000638    -0.21300
C1864       C  0.36334341  0.01955440  0.63645382     0.24400
C1865       C  0.38750356  0.02785956  0.63052101    -0.18800
C1866       C  0.40719616  0.02406769  0.64736923    -0.08800
C1867       C  0.34206167  0.02116026  0.61870994    -0.19100
C1868       C  0.34460382  0.02165864  0.59356511    -0.23900
C1869       C  0.32322422  0.01939252  0.57596967     0.26500
C1870       C  0.32594115  0.02790954  0.55123018    -0.20700
C1871       C  0.30691444  0.02452796  0.53366931    -0.10300
C1872       C  0.28488846  0.01206727  0.54026319    -0.10900
C1873       C  0.28198807  0.00395334  0.56519816    -0.03800
C1874       C  0.30091505  0.00743442  0.58278993    -0.18900
H1875       H  0.37472849  0.99609109  0.69455963     0.10200
H1876       H  0.34064757  0.00254789  0.66527359     0.10300
H1877       H  0.39134124  0.03713408  0.61291525     0.09900
H1878       H  0.42564655  0.03003019  0.64203770     0.11000
H1879       H  0.32356534  0.02014222  0.62682878     0.11100
H1880       H  0.36303068  0.02294221  0.58532090     0.13000
H1881       H  0.34297564  0.03700803  0.54538974     0.09600
H1882       H  0.30989920  0.03107224  0.51480899     0.11600
H1883       H  0.26511674  0.99469067  0.57118365     0.08300
H1884       H  0.29819867  0.99993294  0.60141790     0.11000
C1885       C  0.68526311  0.96708930  0.49897324    -0.03600
C1886       C  0.69944945  0.96407623  0.47690823    -0.06200
C1887       C  0.71684683  0.94472782  0.47456056    -0.21300
C1888       C  0.72127039  0.92818591  0.49446108     0.24400
C1889       C  0.70733634  0.93105248  0.51666481    -0.18800
C1890       C  0.68955524  0.95025874  0.51891004    -0.08800
C1891       C  0.74030843  0.90810605  0.49105426    -0.19100
C1892       C  0.75333868  0.89780367  0.51006067    -0.23900
C1893       C  0.77361401  0.87904921  0.50613408     0.26500
C1894       C  0.79291230  0.87741835  0.52373314    -0.20700
C1895       C  0.81250494  0.86038335  0.52045458    -0.10300
C1896       C  0.81324665  0.84408937  0.49967903    -0.10900
C1897       C  0.79349389  0.84546553  0.48228251    -0.03800
C1898       C  0.77398119  0.86266899  0.48549912    -0.18900
H1899       H  0.69714375  0.97693176  0.46136607     0.10200
H1900       H  0.72728197  0.94299795  0.45723801     0.10300
H1901       H  0.70995257  0.91838923  0.53228177     0.09900
H1902       H  0.67984205  0.95201007  0.53654387     0.11000
H1903       H  0.74500764  0.90302180  0.47190898     0.11100
H1904       H  0.75038804  0.90461492  0.52901537     0.13000
H1905       H  0.79304266  0.88965072  0.53992549     0.09600
H1906       H  0.82725308  0.85988899  0.53427901     0.11600
H1907       H  0.79267229  0.83353686  0.46604596     0.08300
H1908       H  0.75904312  0.86282046  0.47191239     0.11000
C1909       C  0.61481752  0.01645218  0.54291927    -0.03600
C1910       C  0.59309143  0.03001917  0.53716011    -0.06200
C1911       C  0.57366079  0.03219333  0.55456246    -0.21300
C1912       C  0.57546503  0.02119246  0.57839699     0.24400
C1913       C  0.59756150  0.00829959  0.58457993    -0.18800
C1914       C  0.61698101  0.00609892  0.56712356    -0.08800
C1915       C  0.55329870  0.02211815  0.59537425    -0.19100
C1916       C  0.55430761  0.01785798  0.62031059    -0.23900
C1917       C  0.53214680  0.01616139  0.63723885     0.26500
C1918       C  0.53572593  0.00624280  0.66135740    -0.20700
C1919       C  0.51565169  0.00275364  0.67764564    -0.10300
C1920       C  0.49134061  0.00924245  0.67036676    -0.10900
C1921       C  0.48773107  0.02018515  0.64669516    -0.03800
C1922       C  0.50787008  0.02354898  0.63022066    -0.18900
H1923       H  0.59053660  0.03831255  0.51893442     0.10200
H1924       H  0.55690940  0.04218789  0.54918192     0.10300
H1925       H  0.59975331  0.99907799  0.60248196     0.09900
H1926       H  0.63359025  0.99597115  0.57260036     0.11000
H1927       H  0.53552928  0.02602454  0.58659618     0.11100
H1928       H  0.57228761  0.01454164  0.62892952     0.13000
H1929       H  0.55414424  0.00067652  0.66751818     0.09600
H1930       H  0.51919842  0.99487901  0.69601700     0.11600
H1931       H  0.46927817  0.02551410  0.64060796     0.08300
H1932       H  0.50415252  0.03184971  0.61213381     0.11000
C1933       C  0.61970240  0.01944345  0.45551029    -0.03600
C1934       C  0.62648924  0.01178203  0.43120046    -0.06200
C1935       C  0.61043569  0.01547833  0.41096204    -0.21300
C1936       C  0.58710054  0.02685692  0.41436823     0.24400
C1937       C  0.58091924  0.03607658  0.43836513    -0.18800
C1938       C  0.59711758  0.03243945  0.45866334    -0.08800
C1939       C  0.56973180  0.02752500  0.39257291    -0.19100
C1940       C  0.54493480  0.03103965  0.39448257    -0.23900
C1941       C  0.52743524  0.02754600  0.37314231     0.26500
C1942       C  0.50424836  0.03961824  0.37385824    -0.20700
C1943       C  0.48640516  0.03518258  0.35534021    -0.10300
C1944       C  0.49099540  0.01808566  0.33576744    -0.10900
C1945       C  0.51457686  0.00642244  0.33478441    -0.03800
C1946       C  0.53250071  0.01099288  0.35324444    -0.18900
H1947       H  0.64417629  0.00262196  0.42776155     0.10200
H1948       H  0.61599312  0.00863974  0.39265624     0.10300
H1949       H  0.56357673  0.04583034  0.44175530     0.09900
H1950       H  0.59146822  0.03910280  0.47688673     0.11000
H1951       H  0.57762944  0.02323691  0.37431557     0.11100
H1952       H  0.53670891  0.03587502  0.41241684     0.13000
H1953       H  0.49979557  0.05239333  0.38900219     0.09600
H1954       H  0.46891303  0.04493360  0.35697333     0.11600
H1955       H  0.51937657  0.99364477  0.31981186     0.08300
H1956       H  0.54993665  0.00084404  0.35224322     0.11000
C1957       C  0.40138623  0.43212386  0.08489220    -0.03600
C1958       C  0.37687085  0.42595899  0.09167438    -0.06200
C1959       C  0.35751100  0.44320346  0.08862418    -0.21300
C1960       C  0.36208341  0.46715167  0.07890028     0.24400
C1961       C  0.38646338  0.47303715  0.07113262    -0.18800
C1962       C  0.40586513  0.45562428  0.07404526    -0.08800
C1963       C  0.34088749  0.48523150  0.07788234    -0.19100
C1964       C  0.34339920  0.51029676  0.07633739    -0.23900
C1965       C  0.32220112  0.52819670  0.07929424     0.26500
C1966       C  0.32485357  0.55284690  0.07060352    -0.20700
C1967       C  0.30625876  0.57079042  0.07499990    -0.10300
C1968       C  0.28467388  0.56463516  0.08853477    -0.10900
C1969       C  0.28174374  0.53974825  0.09662908    -0.03800
C1970       C  0.30026965  0.52183179  0.09225006    -0.18900
H1971       H  0.37261029  0.40775798  0.09945787     0.10200
H1972       H  0.33891964  0.43796756  0.09446556     0.10300
H1973       H  0.39075690  0.49096658  0.06285625     0.09900
H1974       H  0.42445854  0.46086817  0.06845080     0.11000
H1975       H  0.32241593  0.47738764  0.07995745     0.11100
H1976       H  0.36170943  0.51834940  0.07376295     0.13000
H1977       H  0.34157630  0.55835697  0.06069537     0.09600
H1978       H  0.30926758  0.58959277  0.06839868     0.11600
H1979       H  0.26514671  0.53400181  0.10656611     0.08300
H1980       H  0.29754623  0.50331021  0.09987917     0.11000
C1981       C  0.68034742  0.59356806  0.13420304    -0.03600
C1982       C  0.69440149  0.57138452  0.13668762    -0.06200
C1983       C  0.71213755  0.56871111  0.15563727    -0.21300
C1984       C  0.71638639  0.58808109  0.17278776     0.24400
C1985       C  0.70213110  0.61013728  0.17079232    -0.18800
C1986       C  0.68434493  0.61285802  0.15177755    -0.08800
C1987       C  0.73728959  0.58541453  0.19090356    -0.19100
C1988       C  0.73929059  0.59874422  0.21225142    -0.23900
C1989       C  0.76141890  0.59712587  0.22893538     0.26500
C1990       C  0.75870705  0.60191062  0.25464401    -0.20700
C1991       C  0.77943476  0.60174581  0.27053539    -0.10300
C1992       C  0.80361814  0.59765924  0.26103024    -0.10900
C1993       C  0.80608581  0.59224076  0.23522045    -0.03800
C1994       C  0.78533441  0.59213249  0.21943166    -0.18900
H1995       H  0.69213659  0.55627245  0.12336501     0.10200
H1996       H  0.72298507  0.55159812  0.15655391     0.10300
H1997       H  0.70537863  0.62582327  0.18314949     0.09900
H1998       H  0.67477179  0.63057295  0.15056590     0.11000
H1999       H  0.75151172  0.57158248  0.18650699     0.11100
H2000       H  0.72407989  0.61083405  0.21812059     0.13000
H2001       H  0.74047020  0.60577352  0.26247213     0.09600
H2002       H  0.77663635  0.60534481  0.29032802     0.11600
H2003       H  0.82376987  0.58778244  0.22676017     0.08300
H2004       H  0.78822885  0.58870694  0.19963732     0.11000
C2005       C  0.48947514  0.42948044  0.08293178    -0.03600
C2006       C  0.51374222  0.42176896  0.08917305    -0.06200
C2007       C  0.53397645  0.43764683  0.08547288    -0.21300
C2008       C  0.53059792  0.46173193  0.07553636     0.24400
C2009       C  0.50644261  0.46904047  0.06806288    -0.18800
C2010       C  0.48613877  0.45300546  0.07168466    -0.08800
C2011       C  0.55273364  0.47848665  0.07423365    -0.19100
C2012       C  0.55158605  0.50346724  0.07081158    -0.23900
C2013       C  0.57354018  0.52030431  0.07297664     0.26500
C2014       C  0.57243025  0.54401214  0.06176846    -0.20700
C2015       C  0.59151814  0.56137679  0.06531198    -0.10300
C2016       C  0.61204375  0.55578977  0.08069708    -0.10900
C2017       C  0.61359194  0.53158953  0.09113241    -0.03800
C2018       C  0.59458246  0.51413630  0.08745324    -0.18900
H2019       H  0.51713835  0.40343018  0.09712830     0.10200
H2020       H  0.55232579  0.43126024  0.09103384     0.10300
H2021       H  0.50293118  0.48707208  0.05960012     0.09900
H2022       H  0.46777934  0.45938024  0.06637299     0.11000
H2023       H  0.57073946  0.46981893  0.07751010     0.11100
H2024       H  0.53386364  0.51239243  0.06691834     0.13000
H2025       H  0.55649216  0.54929659  0.05048683     0.09600
H2026       H  0.58959018  0.57932816  0.05644664     0.11600
H2027       H  0.62936604  0.52604440  0.10245205     0.08300
H2028       H  0.59611394  0.49625823  0.09682520     0.11000
C2029       C  0.45139745  0.96547863  0.26715731    -0.03600
C2030       C  0.47321004  0.96200331  0.25284642    -0.06200
C2031       C  0.47553592  0.94199377  0.23613861    -0.21300
C2032       C  0.45598377  0.92504022  0.23288557     0.24400
C2033       C  0.43433029  0.92799261  0.24744451    -0.18800
C2034       C  0.43202417  0.94794671  0.26430919    -0.08800
C2035       C  0.45899781  0.90448924  0.21431604    -0.19100
C2036       C  0.43971818  0.89355082  0.20252132    -0.23900
C2037       C  0.44292505  0.87422711  0.18269054     0.26500
C2038       C  0.42421519  0.87135757  0.16464884    -0.20700
C2039       C  0.42687430  0.85389989  0.14532030    -0.10300
C2040       C  0.44829133  0.83866855  0.14348654    -0.10900
C2041       C  0.46667538  0.84105228  0.16218055    -0.03800
C2042       C  0.46397770  0.85854162  0.18152520    -0.18900
H2043       H  0.48846318  0.97509373  0.25441466     0.10200
H2044       H  0.49251992  0.94006624  0.22531003     0.10300
H2045       H  0.41913355  0.91485977  0.24599987     0.09900
H2046       H  0.41477466  0.94944958  0.27452129     0.11000
H2047       H  0.47788002  0.89957805  0.20889050     0.11100
H2048       H  0.42092727  0.90019644  0.20613760     0.13000
H2049       H  0.40765652  0.88299483  0.16522979     0.09600
H2050       H  0.41225823  0.85251011  0.13142013     0.11600
H2051       H  0.48332301  0.82976199  0.16225421     0.08300
H2052       H  0.47838151  0.85953506  0.19563855     0.11000
C2053       C  0.61474308  0.64215593  0.08314982    -0.03600
C2054       C  0.59275495  0.63786528  0.06965437    -0.06200
C2055       C  0.57457476  0.65650308  0.06742782    -0.21300
C2056       C  0.57801879  0.68013217  0.07824646     0.24400
C2057       C  0.60050925  0.68496160  0.09082597    -0.18800
C2058       C  0.61866390  0.66620574  0.09315572    -0.08800
C2059       C  0.55687635  0.69822174  0.07780425    -0.19100
C2060       C  0.55927185  0.72311248  0.08103927    -0.23900
C2061       C  0.53766686  0.74058895  0.08325305     0.26500
C2062       C  0.54119363  0.76367811  0.09520162    -0.20700
C2063       C  0.52112759  0.77990991  0.09940101    -0.10300
C2064       C  0.49693087  0.77347412  0.09168592    -0.10900
C2065       C  0.49366368  0.75096992  0.07855474    -0.03800
C2066       C  0.51372901  0.73473114  0.07430792    -0.18900
H2067       H  0.58893700  0.61986368  0.06162131     0.10200
H2068       H  0.55744330  0.65222979  0.05765305     0.10300
H2069       H  0.60382465  0.70276301  0.09980707     0.09900
H2070       H  0.63560667  0.67049077  0.10319954     0.11000
H2071       H  0.53851568  0.69026239  0.07536550     0.11100
H2072       H  0.57768485  0.73099905  0.08347265     0.13000
H2073       H  0.55948126  0.76895042  0.10186965     0.09600
H2074       H  0.52464269  0.79748997  0.10878397     0.11600
H2075       H  0.47547806  0.74543306  0.07204994     0.08300
H2076       H  0.51024669  0.71766279  0.06407644     0.11000
C2077       C  0.40963755  0.76833981  0.09367864    -0.03600
C2078       C  0.41474552  0.74669131  0.07961987    -0.06200
C2079       C  0.39635724  0.72863380  0.07572338    -0.21300
C2080       C  0.37227102  0.73181864  0.08553697     0.24400
C2081       C  0.36698446  0.75366994  0.09930345    -0.18800
C2082       C  0.38537175  0.77169929  0.10318095    -0.08800
C2083       C  0.35393332  0.71115985  0.08255873    -0.19100
C2084       C  0.32912731  0.71384917  0.08584847    -0.23900
C2085       C  0.31130165  0.69253061  0.08604740     0.26500
C2086       C  0.28829105  0.69569347  0.09818614    -0.20700
C2087       C  0.27182845  0.67564711  0.10077889    -0.10300
C2088       C  0.27790960  0.65186642  0.09116137    -0.10900
C2089       C  0.30025314  0.64913836  0.07768989    -0.03800
C2090       C  0.31676097  0.66916369  0.07512978    -0.18900
H2091       H  0.43310278  0.74324457  0.07207584     0.10200
H2092       H  0.40107267  0.71192196  0.06522092     0.10300
H2093       H  0.34894768  0.75675871  0.10778175     0.09900
H2094       H  0.38043751  0.78831561  0.11368517     0.11000
H2095       H  0.36158142  0.69284917  0.07828813     0.11100
H2096       H  0.32148729  0.73219379  0.09000768     0.13000
H2097       H  0.28330727  0.71359053  0.10634894     0.09600
H2098       H  0.25441116  0.67881011  0.11052592     0.11600
H2099       H  0.30550546  0.63138240  0.06968387     0.08300
H2100       H  0.33376317  0.66607846  0.06469720     0.11000
C2101       C  0.21416349  0.60326974  0.14142223    -0.03600
C2102       C  0.21463806  0.58422396  0.15973423    -0.06200
C2103       C  0.19697284  0.58370852  0.17900763    -0.21300
C2104       C  0.17821230  0.60197006  0.18059296     0.24400
C2105       C  0.17816067  0.62156412  0.16297136    -0.18800
C2106       C  0.19589275  0.62215616  0.14372241    -0.08800
C2107       C  0.15929074  0.59965388  0.20092153    -0.19100
C2108       C  0.13690511  0.61119955  0.20079592    -0.23900
C2109       C  0.11779068  0.60748427  0.22069879     0.26500
C2110       C  0.09958179  0.62599266  0.22438593    -0.20700
C2111       C  0.08116929  0.62306615  0.24270065    -0.10300
C2112       C  0.08041045  0.60154452  0.25795519    -0.10900
C2113       C  0.09828918  0.58262501  0.25362285    -0.03800
C2114       C  0.11667131  0.58555452  0.23524972    -0.18900
H2115       H  0.22813641  0.56928982  0.15943190     0.10200
H2116       H  0.19767596  0.56855801  0.19250142     0.10300
H2117       H  0.16462045  0.63654912  0.16388635     0.09900
H2118       H  0.19508885  0.63726233  0.13019218     0.11000
H2119       H  0.16391356  0.58721543  0.21632386     0.11100
H2120       H  0.13216077  0.62395869  0.18572064     0.13000
H2121       H  0.09967173  0.64287456  0.21313703     0.09600
H2122       H  0.06741262  0.63776327  0.24505253     0.11600
H2123       H  0.09815043  0.56520060  0.26377371     0.08300
H2124       H  0.12957333  0.57027019  0.23217209     0.11000
C2125       C  0.03781251  0.43280496  0.45764683    -0.03600
C2126       C  0.01356654  0.43899338  0.44990718    -0.06200
C2127       C  0.00972792  0.45686585  0.43101493    -0.21300
C2128       C  0.03001643  0.46916711  0.41993290     0.24400
C2129       C  0.05425976  0.46264230  0.42753504    -0.18800
C2130       C  0.05806607  0.44485705  0.44625214    -0.08800
C2131       C  0.02570085  0.48811404  0.39995175    -0.19100
C2132       C  0.04167485  0.50707169  0.39601347    -0.23900
C2133       C  0.04038765  0.52468968  0.37456787     0.26500
C2134       C  0.06261633  0.53592788  0.36676116    -0.20700
C2135       C  0.06286079  0.55244411  0.34656607    -0.10300
C2136       C  0.04076552  0.55843691  0.33386150    -0.10900
C2137       C  0.01830258  0.54773491  0.34193977    -0.03800
C2138       C  0.01809932  0.53080488  0.36206236    -0.18900
H2139       H  0.99763326  0.42975322  0.45815717     0.10200
H2140       H  0.99089766  0.46126986  0.42520708     0.10300
H2141       H  0.07045566  0.47091129  0.41882033     0.09900
H2142       H  0.07697767  0.44070842  0.45194531     0.11000
H2143       H  0.00938440  0.48606206  0.38817243     0.11100
H2144       H  0.05755187  0.50912735  0.40840093     0.13000
H2145       H  0.07998552  0.53172242  0.37620905     0.09600
H2146       H  0.08035612  0.56088542  0.34115516     0.11600
H2147       H  0.00100647  0.55224374  0.33252274     0.08300
H2148       H  0.00052942  0.52292038  0.36796799     0.11000
C2149       C  0.08473813  0.60818640  0.73480229    -0.03600
C2150       C  0.10154549  0.62840119  0.73531784    -0.06200
C2151       C  0.12132856  0.62877249  0.75229423    -0.21300
C2152       C  0.12487187  0.60925559  0.76948343     0.24400
C2153       C  0.10845550  0.58882175  0.76887081    -0.18800
C2154       C  0.08868545  0.58837068  0.75180238    -0.08800
C2155       C  0.14614509  0.61091021  0.78729256    -0.19100
C2156       C  0.14717436  0.59850563  0.80928750    -0.23900
C2157       C  0.16811025  0.60058782  0.82748236     0.26500
C2158       C  0.17090218  0.58181438  0.84562012    -0.20700
C2159       C  0.18976314  0.58316688  0.86354897    -0.10300
C2160       C  0.20635045  0.60351192  0.86417660    -0.10900
C2161       C  0.20348859  0.62242905  0.84594728    -0.03800
C2162       C  0.18460393  0.62100090  0.82788879    -0.18900
H2163       H  0.09976132  0.64431242  0.72308337     0.10200
H2164       H  0.13376884  0.64467538  0.75223294     0.10300
H2165       H  0.11089605  0.57297187  0.78123599     0.09900
H2166       H  0.07624422  0.57247624  0.75194080     0.11000
H2167       H  0.16117230  0.62337922  0.78213730     0.11100
H2168       H  0.13208144  0.58609120  0.81441193     0.13000
H2169       H  0.15838722  0.56597625  0.84596407     0.09600
H2170       H  0.19121695  0.56834974  0.87734525     0.11600
H2171       H  0.21527780  0.63867463  0.84553897     0.08300
H2172       H  0.18269699  0.63631971  0.81478669     0.11000
C2173       C  0.04351319  0.43721442  0.54057471    -0.03600
C2174       C  0.06549223  0.44988942  0.54688318    -0.06200
C2175       C  0.06502828  0.46996699  0.56353461    -0.21300
C2176       C  0.04267526  0.47785699  0.57464123     0.24400
C2177       C  0.02044257  0.46558864  0.56806365    -0.18800
C2178       C  0.02087101  0.44552087  0.55098563    -0.08800
C2179       C  0.04383873  0.49918785  0.59252226    -0.19100
C2180       C  0.02768345  0.50315719  0.61151237    -0.23900
C2181       C  0.03142059  0.52322198  0.63061749     0.26500
C2182       C  0.01082144  0.53288398  0.64375457    -0.20700
C2183       C  0.01385529  0.55180321  0.66171827    -0.10300
C2184       C  0.03764367  0.56118820  0.66720607    -0.10900
C2185       C  0.05829169  0.55109374  0.65448847    -0.03800
C2186       C  0.05527338  0.53230270  0.63656213    -0.18900
H2187       H  0.08316413  0.44448478  0.53867593     0.10200
H2188       H  0.08236874  0.47923082  0.56799284     0.10300
H2189       H  0.00276477  0.47158894  0.57578688     0.09900
H2190       H  0.00362229  0.43624550  0.54627273     0.11000
H2191       H  0.05974663  0.51146892  0.59054173     0.11100
H2192       H  0.01142051  0.49132395  0.61339681     0.13000
H2193       H  0.99229724  0.52594855  0.63992293     0.09600
H2194       H  0.99760545  0.55885613  0.67149954     0.11600
H2195       H  0.07687086  0.55795435  0.65810465     0.08300
H2196       H  0.07180713  0.52475827  0.62772952     0.11000
C2197       C  0.21475758  0.96070505  0.50445159    -0.03600
C2198       C  0.19891012  0.95984907  0.52552426    -0.06200
C2199       C  0.18188302  0.94039110  0.52866515    -0.21300
C2200       C  0.18022021  0.92120364  0.51085279     0.24400
C2201       C  0.19699279  0.92107347  0.49060350    -0.18800
C2202       C  0.21399843  0.94053889  0.48740433    -0.08800
C2203       C  0.16073181  0.90176794  0.51385012    -0.19100
C2204       C  0.15068312  0.88960271  0.49419288    -0.23900
C2205       C  0.12981253  0.87154288  0.49635717     0.26500
C2206       C  0.11524032  0.86681789  0.47510729    -0.20700
C2207       C  0.09527997  0.85020202  0.47626754    -0.10300
C2208       C  0.08944757  0.83750406  0.49864346    -0.10900
C2209       C  0.10436851  0.84208545  0.51990835    -0.03800
C2210       C  0.12431478  0.85879159  0.51873441    -0.18900
H2211       H  0.19933452  0.97468866  0.53934633     0.10200
H2212       H  0.16950575  0.94070394  0.54472378     0.10300
H2213       H  0.19711306  0.90591713  0.47715859     0.09900
H2214       H  0.22629807  0.93929061  0.47149645     0.11000
H2215       H  0.15312688  0.89903856  0.53250449     0.11100
H2216       H  0.15679794  0.89427553  0.47536012     0.13000
H2217       H  0.11910636  0.87627869  0.45756543     0.09600
H2218       H  0.08418591  0.84730761  0.45958109     0.11600
H2219       H  0.10091174  0.83325519  0.53771276     0.08300
H2220       H  0.13547975  0.86139491  0.53537751     0.11000
C2221       C  0.03375004  0.77360576  0.54261663    -0.03600
C2222       C  0.03456862  0.78182907  0.56757673    -0.06200
C2223       C  0.03035574  0.76510225  0.58724250    -0.21300
C2224       C  0.02555386  0.73973711  0.58242881     0.24400
C2225       C  0.02371586  0.73178226  0.55727780    -0.18800
C2226       C  0.02773674  0.74861748  0.53759928    -0.08800
C2227       C  0.02344247  0.72241877  0.60424069    -0.19100
C2228       C  0.02442443  0.69725253  0.60255409    -0.23900
C2229       C  0.02532203  0.68035548  0.62472131     0.26500
C2230       C  0.01874459  0.65513128  0.62168268    -0.20700
C2231       C  0.02167865  0.63803692  0.64135546    -0.10300
C2232       C  0.03154672  0.64579192  0.66441741    -0.10900
C2233       C  0.03738069  0.67118864  0.66775003    -0.03800
C2234       C  0.03446088  0.68825848  0.64812522    -0.18900
H2235       H  0.03885500  0.80114122  0.57187066     0.10200
H2236       H  0.03159363  0.77188467  0.60634137     0.10300
H2237       H  0.01940287  0.71266534  0.55249326     0.09900
H2238       H  0.02706147  0.74187095  0.51846018     0.11000
H2239       H  0.02204061  0.73101138  0.62261828     0.11100
H2240       H  0.02525032  0.68830206  0.58435805     0.13000
H2241       H  0.01184710  0.64850212  0.60381160     0.09600
H2242       H  0.01729519  0.61855934  0.63809180     0.11600
H2243       H  0.04473837  0.67781701  0.68542091     0.08300
H2244       H  0.04038208  0.70731649  0.65117995     0.11000
C2245       C  0.04616334  0.76300892  0.45999782    -0.03600
C2246       C  0.06750883  0.74859289  0.45492931    -0.06200
C2247       C  0.06649478  0.72843487  0.43834727    -0.21300
C2248       C  0.04422112  0.72222539  0.42616207     0.24400
C2249       C  0.02259915  0.73623012  0.43170860    -0.18800
C2250       C  0.02359339  0.75637353  0.44856161    -0.08800
C2251       C  0.04492514  0.70125848  0.40775233    -0.19100
C2252       C  0.02752486  0.69688739  0.39008341    -0.23900
C2253       C  0.03083193  0.67738926  0.37037351     0.26500
C2254       C  0.00984382  0.66616682  0.35952602    -0.20700
C2255       C  0.01255259  0.64804906  0.34068337    -0.10300
C2256       C  0.03632511  0.64112325  0.33202499    -0.10900
C2257       C  0.05728006  0.65264325  0.34265105    -0.03800
C2258       C  0.05459002  0.67060738  0.36146193    -0.18900
H2259       H  0.08505763  0.75279387  0.46391994     0.10200
H2260       H  0.08338046  0.71786873  0.43471389     0.10300
H2261       H  0.00490703  0.73178267  0.42323412     0.09900
H2262       H  0.00682486  0.76709167  0.45221101     0.11000
H2263       H  0.06137442  0.68939540  0.40820706     0.11100
H2264       H  0.01052478  0.70787369  0.38963022     0.13000
H2265       H  0.99131998  0.67132631  0.36576140     0.09600
H2266       H  0.99603169  0.63978149  0.33263547     0.11600
H2267       H  0.07589403  0.64759673  0.33665003     0.08300
H2268       H  0.07120919  0.67942690  0.36862334     0.11000
C2269       C  0.44519724  0.24307086  0.26514011    -0.03600
C2270       C  0.42516477  0.26022889  0.26522766    -0.06200
C2271       C  0.42460247  0.28031173  0.24842442    -0.21300
C2272       C  0.44378055  0.28377850  0.23093115     0.24400
C2273       C  0.46408708  0.26707485  0.23109451    -0.18800
C2274       C  0.46468039  0.24700035  0.24788187    -0.08800
C2275       C  0.44191050  0.30510966  0.21308023    -0.19100
C2276       C  0.45380759  0.30567574  0.19082352    -0.23900
C2277       C  0.45129177  0.32630412  0.17225643     0.26500
C2278       C  0.46964339  0.32864908  0.15372497    -0.20700
C2279       C  0.46748833  0.34672330  0.13497044    -0.10300
C2280       C  0.44677924  0.36295045  0.13397759    -0.10900
C2281       C  0.42845889  0.36076570  0.15281441    -0.03800
C2282       C  0.43066615  0.34263579  0.17166401    -0.18900
H2283       H  0.40963199  0.25849783  0.27787053     0.10200
H2284       H  0.40883849  0.29302611  0.24884874     0.10300
H2285       H  0.47973870  0.26949415  0.21857603     0.09900
H2286       H  0.48049119  0.23435183  0.24739347     0.11000
H2287       H  0.42966091  0.32042783  0.21830846     0.11100
H2288       H  0.46594919  0.29026677  0.18560493     0.13000
H2289       H  0.48566349  0.31625964  0.15360030     0.09600
H2290       H  0.48190104  0.34775448  0.12077559     0.11600
H2291       H  0.41201456  0.37237246  0.15303364     0.08300
H2292       H  0.41571551  0.34103824  0.18515219     0.11000
C2293       C  0.08673058  0.36287138  0.50166486    -0.03600
C2294       C  0.08865185  0.34711186  0.52276412    -0.06200
C2295       C  0.10775159  0.32943255  0.52469187    -0.21300
C2296       C  0.12542630  0.32685819  0.50552454     0.24400
C2297       C  0.12401825  0.34282694  0.48462617    -0.18800
C2298       C  0.10492465  0.36059158  0.48268302    -0.08800
C2299       C  0.14541904  0.30782216  0.50830808    -0.19100
C2300       C  0.15687244  0.29690623  0.48865819    -0.23900
C2301       C  0.17608485  0.27711049  0.49162971     0.26500
C2302       C  0.17873385  0.25899363  0.47284865    -0.20700
C2303       C  0.19628098  0.23980265  0.47527367    -0.10300
C2304       C  0.21191923  0.23833082  0.49642281    -0.10900
C2305       C  0.20965886  0.25706624  0.51492176    -0.03800
C2306       C  0.19197100  0.27619049  0.51252420    -0.18900
H2307       H  0.07510517  0.34839998  0.53778859     0.10200
H2308       H  0.10854788  0.31751435  0.54111302     0.10300
H2309       H  0.13785257  0.34194084  0.46987662     0.09900
H2310       H  0.10488727  0.37226927  0.46623071     0.11000
H2311       H  0.14968928  0.30149159  0.52717889     0.11100
H2312       H  0.15084052  0.30130727  0.46973315     0.13000
H2313       H  0.16686668  0.25941737  0.45644315     0.09600
H2314       H  0.19750773  0.22579108  0.46064339     0.11600
H2315       H  0.22114826  0.25730070  0.53144306     0.08300
H2316       H  0.19096957  0.29037367  0.52697433     0.11000
C2317       C  0.40932559  0.18859574  0.33547935    -0.03600
C2318       C  0.41670255  0.17979765  0.35911011    -0.06200
C2319       C  0.39910034  0.17589792  0.37807897    -0.21300
C2320       C  0.37367307  0.18040853  0.37378930     0.24400
C2321       C  0.36619447  0.18839364  0.34975748    -0.18800
C2322       C  0.38382583  0.19236362  0.33087053    -0.08800
C2323       C  0.35607258  0.17870112  0.39538116    -0.19100
C2324       C  0.33108024  0.17795294  0.39307555    -0.23900
C2325       C  0.31361597  0.18008412  0.41469559     0.26500
C2326       C  0.28956697  0.18940831  0.41025014    -0.20700
C2327       C  0.27302873  0.19348616  0.43008898    -0.10300
C2328       C  0.28002015  0.18800049  0.45489101    -0.10900
C2329       C  0.30359601  0.17747098  0.45926591    -0.03800
C2330       C  0.32030685  0.17362699  0.43941366    -0.18900
H2331       H  0.43611672  0.17698020  0.36335843     0.10200
H2332       H  0.40546459  0.16991220  0.39640272     0.10300
H2333       H  0.34697469  0.19264315  0.34555285     0.09900
H2334       H  0.37751103  0.19887962  0.31271977     0.11000
H2335       H  0.36425434  0.17925614  0.41395164     0.11100
H2336       H  0.32277826  0.17741230  0.37457606     0.13000
H2337       H  0.28374943  0.19418840  0.39139425     0.09600
H2338       H  0.25472284  0.20099020  0.42599298     0.11600
H2339       H  0.30939772  0.17276035  0.47807002     0.08300
H2340       H  0.33833168  0.16557354  0.44356833     0.11000
C2341       C  0.44564526  0.23600467  0.73432512    -0.03600
C2342       C  0.42374401  0.23943637  0.74852637    -0.06200
C2343       C  0.42106148  0.25977993  0.76476688    -0.21300
C2344       C  0.44042788  0.27697063  0.76782582     0.24400
C2345       C  0.46238068  0.27371991  0.75376867    -0.18800
C2346       C  0.46501249  0.25347795  0.73732476    -0.08800
C2347       C  0.43707097  0.29798239  0.78581578    -0.19100
C2348       C  0.45621906  0.30876477  0.79789790    -0.23900
C2349       C  0.45296525  0.32810745  0.81764550     0.26500
C2350       C  0.47094683  0.32973659  0.83652699    -0.20700
C2351       C  0.46846480  0.34718469  0.85580768    -0.10300
C2352       C  0.44812959  0.36392560  0.85662712    -0.10900
C2353       C  0.43032349  0.36264526  0.83726293    -0.03800
C2354       C  0.43272932  0.34491750  0.81800632    -0.18900
H2355       H  0.40859362  0.22621548  0.74704037     0.10200
H2356       H  0.40393838  0.26182513  0.77534796     0.10300
H2357       H  0.47754906  0.28688145  0.75523135     0.09900
H2358       H  0.48250184  0.25166775  0.72756238     0.11000
H2359       H  0.41814203  0.30330118  0.79070354     0.11100
H2360       H  0.47496041  0.30169752  0.79485117     0.13000
H2361       H  0.48678975  0.31711635  0.83664110     0.09600
H2362       H  0.48249918  0.34753841  0.87037143     0.11600
H2363       H  0.41434171  0.37489683  0.83678619     0.08300
H2364       H  0.41883883  0.34458043  0.80333672     0.11000
C2365       C  0.27836861  0.18810962  0.54370492    -0.03600
C2366       C  0.26978893  0.19195035  0.56829963    -0.06200
C2367       C  0.28568016  0.18845466  0.58872354    -0.21300
C2368       C  0.31060225  0.18122214  0.58511755     0.24400
C2369       C  0.31891439  0.17652538  0.56041617    -0.18800
C2370       C  0.30285865  0.17978650  0.54000113    -0.08800
C2371       C  0.32727933  0.18047130  0.60749945    -0.19100
C2372       C  0.35159294  0.17408876  0.60686238    -0.23900
C2373       C  0.36878395  0.17640155  0.62863387     0.26500
C2374       C  0.39167203  0.16373187  0.62771769    -0.20700
C2375       C  0.40950522  0.16709926  0.64645458    -0.10300
C2376       C  0.40517618  0.18360474  0.66654376    -0.10900
C2377       C  0.38172357  0.19551749  0.66797007    -0.03800
C2378       C  0.36386581  0.19215533  0.64920769    -0.18900
H2379       H  0.25079137  0.19792339  0.57172847     0.10200
H2380       H  0.27859398  0.19205154  0.60741780     0.10300
H2381       H  0.33783573  0.17097676  0.55639865     0.09900
H2382       H  0.30992860  0.17674538  0.52126893     0.11000
H2383       H  0.31905933  0.18606360  0.62522901     0.11100
H2384       H  0.35974664  0.16703027  0.58968540     0.13000
H2385       H  0.39599752  0.15143892  0.61214204     0.09600
H2386       H  0.42681812  0.15710060  0.64454434     0.11600
H2387       H  0.37701344  0.20772455  0.68343496     0.08300
H2388       H  0.34667629  0.20264353  0.65062439     0.11000
C2389       C  0.81173014  0.36753508  0.50704981    -0.03600
C2390       C  0.80916540  0.35185843  0.52812459    -0.06200
C2391       C  0.78956897  0.33484385  0.52992812    -0.21300
C2392       C  0.77221183  0.33249339  0.51047686     0.24400
C2393       C  0.77449982  0.34812833  0.48938620    -0.18800
C2394       C  0.79401588  0.36534533  0.48764523    -0.08800
C2395       C  0.75200672  0.31368179  0.51311051    -0.19100
C2396       C  0.73991474  0.30340549  0.49353524    -0.23900
C2397       C  0.72104053  0.28327969  0.49640060     0.26500
C2398       C  0.71717572  0.26668246  0.47645642    -0.20700
C2399       C  0.70017160  0.24708814  0.47868478    -0.10300
C2400       C  0.68616911  0.24370164  0.50079493    -0.10900
C2401       C  0.68971839  0.26080041  0.52060259    -0.03800
C2402       C  0.70684503  0.28034154  0.51838318    -0.18900
H2403       H  0.82256576  0.35267769  0.54325420     0.10200
H2404       H  0.78825140  0.32310704  0.54644391     0.10300
H2405       H  0.76119927  0.34729647  0.47420802     0.09900
H2406       H  0.79514799  0.37628889  0.47071558     0.11000
H2407       H  0.74827320  0.30680464  0.53189076     0.11100
H2408       H  0.74524321  0.30848107  0.47457195     0.13000
H2409       H  0.72772034  0.26857461  0.45922652     0.09600
H2410       H  0.69806186  0.23429450  0.46308861     0.11600
H2411       H  0.67978810  0.25931397  0.53809435     0.08300
H2412       H  0.70873766  0.29319702  0.53391611     0.11000
C2413       C  0.49090861  0.18482084  0.66647347    -0.03600
C2414       C  0.48555630  0.17219647  0.64405250    -0.06200
C2415       C  0.50365978  0.16950890  0.62536784    -0.21300
C2416       C  0.52768312  0.17913280  0.62869319     0.24400
C2417       C  0.53333131  0.19119780  0.65144033    -0.18800
C2418       C  0.51519460  0.19386878  0.67011465    -0.08800
C2419       C  0.54548939  0.17801874  0.60728548    -0.19100
C2420       C  0.57033288  0.18060717  0.60970227    -0.23900
C2421       C  0.58782487  0.18271014  0.58809597     0.26500
C2422       C  0.61121528  0.19351623  0.59224753    -0.20700
C2423       C  0.62762198  0.19769240  0.57233735    -0.10300
C2424       C  0.62108292  0.19108449  0.54769211    -0.10900
C2425       C  0.59823968  0.17905948  0.54371893    -0.03800
C2426       C  0.58177474  0.17488160  0.56364315    -0.18900
H2427       H  0.46716112  0.16520716  0.64038062     0.10200
H2428       H  0.49870421  0.16029453  0.60799460     0.10300
H2429       H  0.55136872  0.19945666  0.65467009     0.09900
H2430       H  0.52017353  0.20336131  0.68730393     0.11000
H2431       H  0.53742506  0.17575786  0.58881306     0.11100
H2432       H  0.57828304  0.18263304  0.62826601     0.13000
H2433       H  0.61660594  0.19934224  0.61091453     0.09600
H2434       H  0.64540789  0.20625351  0.57629868     0.11600
H2435       H  0.59264523  0.17348771  0.52516830     0.08300
H2436       H  0.56439013  0.16562199  0.55963554     0.11000
C2437       C  0.61554525  0.19581742  0.46064697    -0.03600
C2438       C  0.59444543  0.18109204  0.46544959    -0.06200
C2439       C  0.57545731  0.17894945  0.44764102    -0.21300
C2440       C  0.57716235  0.19113434  0.42438989     0.24400
C2441       C  0.59849800  0.20544710  0.41927628    -0.18800
C2442       C  0.61746766  0.20756310  0.43706288    -0.08800
C2443       C  0.55582295  0.18944227  0.40663529    -0.19100
C2444       C  0.55759138  0.19428212  0.38185846    -0.23900
C2445       C  0.53602579  0.19417061  0.36432421     0.26500
C2446       C  0.53810891  0.20733033  0.34166417    -0.20700
C2447       C  0.51815433  0.20855459  0.32492201    -0.10300
C2448       C  0.49547694  0.19656015  0.33034530    -0.10900
C2449       C  0.49384440  0.18235995  0.35247521    -0.03800
C2450       C  0.51379425  0.18123447  0.36933017    -0.18900
H2451       H  0.59210424  0.17162980  0.48311060     0.10200
H2452       H  0.55922860  0.16784714  0.45215639     0.10300
H2453       H  0.60049112  0.21564896  0.40189679     0.09900
H2454       H  0.63361359  0.21856142  0.43218524     0.11000
H2455       H  0.53798892  0.18424224  0.41458119     0.11100
H2456       H  0.57545696  0.19937474  0.37392479     0.13000
H2457       H  0.55515641  0.21706782  0.33703516     0.09600
H2458       H  0.52064161  0.21892150  0.30767875     0.11600
H2459       H  0.47709724  0.17237926  0.35715170     0.08300
H2460       H  0.51168083  0.17003435  0.38607236     0.11000
loop_ 
_geom_bond_atom_site_label_1 
_geom_bond_atom_site_label_2 
_geom_bond_distance 
_geom_bond_site_symmetry_2 
_ccdc_geom_bond_type 
C1            C2   1.534       .  S
C1            C7   1.532       .  S
C1            C5   1.543       .  S
C1         C2400   1.531       .  S
C2            H9   1.085       .  S
C2            C3   1.370       .  D
C3            C4   1.549       .  S
C3         C2437   1.498       .  S
C4            C8   1.539       .  S
C4            C6   1.544       .  S
C4           H10   1.108       .  S
C5           H11   1.080       .  S
C5            C6   1.370       .  D
C6         C2424   1.492       .  S
C7           H12   1.087       .  S
C7            C8   1.362       .  D
C8          C687   1.474       .  S
C13          C14   1.542       .  S
C13          C19   1.531       .  S
C13          C17   1.536       .  S
C13        C2341   1.530       .  S
C14          H21   1.081       .  S
C14          C15   1.369       .  D
C15          C16   1.545       .  S
C15        C2413   1.493       .  S
C16          C20   1.538       .  S
C16          C18   1.550       .  S
C16          H22   1.107       .  S
C17          H23   1.084       .  S
C17          C18   1.371       .  D
C18        C2376   1.501       .  S
C19          H24   1.087       .  S
C19          C20   1.362       .  D
C20         C726   1.475       .  S
C25          C26   1.542       .  S
C25          C31   1.533       .  S
C25          C29   1.535       .  S
C25        C2304   1.528       .  S
C26          H33   1.081       .  S
C26          C27   1.367       .  D
C27          C28   1.542       .  S
C27        C2365   1.484       .  S
C28          C32   1.539       .  S
C28          C30   1.544       .  S
C28          H34   1.110       .  S
C29          H35   1.086       .  S
C29          C30   1.367       .  D
C30        C2328   1.488       .  S
C31          H36   1.087       .  S
C31          C32   1.364       .  D
C32         C199   1.474       .  S
C37          C38   1.542       .  S
C37          C43   1.533       .  S
C37          C41   1.533       .  S
C37        C2269   1.530       .  S
C38          H45   1.080       .  S
C38          C39   1.367       .  D
C39          C40   1.544       .  S
C39        C2317   1.488       .  S
C40          C44   1.543       .  S
C40          C42   1.550       .  S
C40          H46   1.109       .  S
C41          H47   1.085       .  S
C41          C42   1.370       .  D
C42        C2448   1.497       .  S
C43          H48   1.087       .  S
C43          C44   1.364       .  D
C44         C212   1.479       .  S
C49          C50   1.544       .  S
C49          C55   1.532       .  S
C49          C53   1.537       .  S
C49        C2208   1.530       .  S
C50          H57   1.081       .  S
C50          C51   1.366       .  D
C51          C52   1.538       .  S
C51        C2221   1.480       .  S
C52          C56   1.541       .  S
C52          C54   1.542       .  S
C52          H58   1.110       .  S
C53          H59   1.086       .  S
C53          C54   1.369       .  D
C54        C2245   1.488       .  S
C55          H60   1.087       .  S
C55          C56   1.364       .  D
C56         C661   1.477   1_455  S
C61          C62   1.538       .  S
C61          C67   1.532       .  S
C61          C65   1.543       .  S
C61        C2149   1.532       .  S
C62          H69   1.086       .  S
C62          C63   1.371       .  D
C63          C64   1.542       .  S
C63        C2184   1.491       .  S
C64          C68   1.537       .  S
C64          C66   1.540       .  S
C64          H70   1.109       .  S
C65          H71   1.080       .  S
C65          C66   1.367       .  D
C66        C2232   1.487       .  S
C67          H72   1.087       .  S
C67          C68   1.363       .  D
C68         C669   1.472   1_455  S
C73          C74   1.542       .  S
C73          C79   1.528       .  S
C73          C77   1.533       .  S
C73        C2293   1.527       .  S
C74          H81   1.080       .  S
C74          C75   1.369       .  D
C75          C76   1.542       .  S
C75        C2125   1.485       .  S
C76          C80   1.543       .  S
C76          C78   1.545       .  S
C76          H82   1.110       .  S
C77          H83   1.086       .  S
C77          C78   1.369       .  D
C78        C2173   1.490       .  S
C79          H84   1.087       .  S
C79          C80   1.362       .  D
C80         C633   1.475   1_455  S
C85          C86   1.537       .  S
C85          C91   1.529       .  S
C85          C89   1.542       .  S
C85        C2112   1.530       .  S
C86          H93   1.086       .  S
C86          C87   1.369       .  D
C87          C88   1.543       .  S
C87        C2256   1.489       .  S
C88          C92   1.539       .  S
C88          C90   1.539       .  S
C88          H94   1.110       .  S
C89          H95   1.081       .  S
C89          C90   1.369       .  D
C90        C2136   1.482       .  S
C91          H96   1.087       .  S
C91          C92   1.364       .  D
C92         C646   1.475   1_455  S
C97          C98   1.535       .  S
C97         C103   1.533       .  S
C97         C101   1.544       .  S
C97        C2040   1.530       .  S
C98         H105   1.085       .  S
C98          C99   1.370       .  D
C99         C100   1.547       .  S
C99        C2077   1.496       .  S
C100        C104   1.537       .  S
C100        C102   1.545       .  S
C100        H106   1.108       .  S
C101        H107   1.080       .  S
C101        C102   1.370       .  D
C102       C2064   1.494       .  S
C103        H108   1.087       .  S
C103        C104   1.362       .  D
C104        C713   1.473       .  S
C109        C110   1.543       .  S
C109        C115   1.530       .  S
C109        C113   1.537       .  S
C109       C1981   1.530       .  S
C110        H117   1.081       .  S
C110        C111   1.371       .  D
C111        C112   1.547       .  S
C111       C2053   1.496       .  S
C112        C116   1.540       .  S
C112        C114   1.550       .  S
C112        H118   1.107       .  S
C113        H119   1.085       .  S
C113        C114   1.372       .  D
C114       C2016   1.502       .  S
C115        H120   1.087       .  S
C115        C116   1.360       .  D
C116        C704   1.475       .  S
C121        C122   1.543       .  S
C121        C127   1.533       .  S
C121        C125   1.535       .  S
C121       C2101   1.533       .  S
C122        H129   1.079       .  S
C122        C123   1.370       .  D
C123        C124   1.545       .  S
C123       C1968   1.496       .  S
C124        C128   1.538       .  S
C124        C126   1.548       .  S
C124        H130   1.108       .  S
C125        H131   1.085       .  S
C125        C126   1.371       .  D
C126       C2088   1.495       .  S
C127        H132   1.087       .  S
C127        C128   1.363       .  D
C128        C369   1.475       .  S
C133        C134   1.533       .  S
C133        C139   1.532       .  S
C133        C137   1.541       .  S
C133       C2280   1.528       .  S
C134        H141   1.086       .  S
C134        C135   1.368       .  D
C135        C136   1.545       .  S
C135       C2005   1.490       .  S
C136        C140   1.540       .  S
C136        C138   1.546       .  S
C136        H142   1.110       .  S
C137        H143   1.081       .  S
C137        C138   1.370       .  D
C138       C1957   1.490       .  S
C139        H144   1.087       .  S
C139        C140   1.363       .  D
C140        C386   1.474       .  S
C145        C146   1.543       .  S
C145        C151   1.529   1_565  S
C145        C149   1.536       .  S
C145       C1885   1.532       .  S
C146        H153   1.081       .  S
C146        C147   1.374   1_565  D
C147        C148   1.550       .  S
C147       C1909   1.500       .  S
C148        C152   1.539       .  S
C148        C150   1.545       .  S
C148        H154   1.108       .  S
C149        H155   1.086       .  S
C149        C150   1.369   1_565  D
C150       C1933   1.494       .  S
C151        H156   1.087       .  S
C151        C152   1.361       .  D
C152        C691   1.473       .  S
C157        C158   1.533       .  S
C157        C163   1.533   1_565  S
C157        C161   1.542       .  S
C157       C1848   1.530       .  S
C158        H165   1.086       .  S
C158        C159   1.368   1_565  D
C159        C160   1.545       .  S
C159       C1861   1.490       .  S
C160        C164   1.540       .  S
C160        C162   1.545       .  S
C160        H166   1.110       .  S
C161        H167   1.081       .  S
C161        C162   1.370   1_565  D
C162       C1920   1.491       .  S
C163        H168   1.087       .  S
C163        C164   1.363       .  D
C164        C730   1.475       .  S
C169        C170   1.540       .  S
C169        C175   1.535   1_565  S
C169        C173   1.544       .  S
C169       C2029   1.532       .  S
C170        H177   1.084       .  S
C170        C171   1.373   1_565  D
C171        C172   1.547       .  S
C171       C1944   1.502       .  S
C172        C176   1.536       .  S
C172        C174   1.541       .  S
C172        H178   1.107       .  S
C173        H179   1.081       .  S
C173        C174   1.367   1_565  D
C174       C1813   1.487       .  S
C175        H180   1.087       .  S
C175        C176   1.363       .  D
C176        C216   1.475       .  S
C181        C182   1.542       .  S
C181        C187   1.536   1_565  S
C181        C185   1.533       .  S
C181       C2197   1.530       .  S
C182        H189   1.080       .  S
C182        C183   1.368   1_565  D
C183        C184   1.545       .  S
C183       C1824   1.491       .  S
C184        C188   1.540       .  S
C184        C186   1.546       .  S
C184        H190   1.109       .  S
C185        H191   1.086       .  S
C185        C186   1.369   1_565  D
C186       C1872   1.493       .  S
C187        H192   1.086       .  S
C187        C188   1.364       .  D
C188        C203   1.477       .  S
In193       O195   2.235       .  S
In193       O196   2.259       .  S
In193       O204   2.228       .  S
In193       O198   2.266       .  S
In193       O200   2.268       .  S
In193       O201   2.261       .  S
In193       O202   2.229       .  S
In193       O205   2.222       .  S
C194        C504   1.479       .  S
C194        O200   1.263       .  A
C194        O202   1.261       .  A
O195        C203   1.261       .  A
O196        C203   1.262       .  A
C197        C540   1.478       .  S
C197        O204   1.260       .  A
C197        O198   1.263       .  A
C199        O201   1.263       .  A
C199        O205   1.261       .  A
In206       O208   2.239       .  S
In206       O209   2.257       .  S
In206       O217   2.226       .  S
In206       O211   2.267       .  S
In206       O213   2.257       .  S
In206       O214   2.267       .  S
In206       O215   2.237       .  S
In206       O218   2.234       .  S
C207        C226   1.475       .  S
C207        O213   1.261       .  A
C207        O215   1.260       .  A
O208        C216   1.260       .  A
O209        C216   1.261       .  A
C210        C286   1.476       .  S
C210        O217   1.261       .  A
C210        O211   1.261       .  A
C212        O214   1.262       .  A
C212        O218   1.261       .  A
C219        C220   1.533       .  S
C219        C225   1.532       .  S
C219        C223   1.546       .  S
C219       C1752   1.529       .  S
C220        H227   1.086       .  S
C220        C221   1.365       .  D
C221        C222   1.544       .  S
C221       C1765   1.487       .  S
C222        C226   1.538       .  S
C222        C224   1.548       .  S
C222        H228   1.107       .  S
C223        H229   1.080       .  S
C223        C224   1.374       .  D
C224       C1789   1.501       .  S
C225        H230   1.087       .  S
C225        C226   1.362       .  D
C231        C232   1.544   1_554  S
C231        C237   1.535   1_554  S
C231        C235   1.536       .  S
C231       C1704   1.534       .  S
C232        H239   1.080       .  S
C232        C233   1.370       .  D
C233        C234   1.542   1_556  S
C233       C1728   1.492       .  S
C234        C238   1.539   1_554  S
C234        C236   1.543       .  S
C234        H240   1.109       .  S
C235        H241   1.086       .  S
C235        C236   1.368       .  D
C236       C1776   1.487       .  S
C237        H242   1.086       .  S
C237        C238   1.366       .  D
C238        C377   1.479       .  S
C243        C244   1.543       .  S
C243        C249   1.535       .  S
C243        C247   1.534   1_554  S
C243       C1645   1.532   1_554  S
C244        H251   1.080       .  S
C244        C245   1.370       .  D
C245        C246   1.542       .  S
C245       C1800   1.491       .  S
C246        C250   1.537       .  S
C246        C248   1.544   1_554  S
C246        H252   1.109       .  S
C247        H253   1.086       .  S
C247        C248   1.369       .  D
C248       C1669   1.489       .  S
C249        H254   1.087       .  S
C249        C250   1.364       .  D
C250        C708   1.473       .  S
C255        C256   1.539       .  S
C255        C261   1.531       .  S
C255        C259   1.543       .  S
C255       C1621   1.534       .  S
C256        H263   1.086       .  S
C256        C257   1.372       .  D
C257        C258   1.542       .  S
C257       C1680   1.489       .  S
C258        C262   1.540       .  S
C258        C260   1.543       .  S
C258        H264   1.109       .  S
C259        H265   1.079       .  S
C259        C260   1.370       .  D
C260       C1717   1.494       .  S
C261        H266   1.087       .  S
C261        C262   1.362       .  D
C262        C724   1.475       .  S
C267        C268   1.542   1_556  S
C267        C273   1.529       .  S
C267        C271   1.539       .  S
C267       C1560   1.531       .  S
C268        H275   1.082       .  S
C268        C269   1.367       .  D
C269        C270   1.541   1_554  S
C269       C1573   1.489       .  S
C270        C274   1.544       .  S
C270        C272   1.542       .  S
C270        H276   1.110       .  S
C271        H277   1.086       .  S
C271        C272   1.370       .  D
C272       C1608   1.484       .  S
C273        H278   1.087       .  S
C273        C274   1.365       .  D
C274        C380   1.481       .  S
C279        C280   1.536       .  S
C279        C285   1.529       .  S
C279        C283   1.545       .  S
C279       C1512   1.534       .  S
C280        H287   1.085       .  S
C280        C281   1.370       .  D
C281        C282   1.545       .  S
C281       C1536   1.495       .  S
C282        C286   1.542       .  S
C282        C284   1.544       .  S
C282        H288   1.108       .  S
C283        H289   1.080       .  S
C283        C284   1.373       .  D
C284       C1584   1.496       .  S
C285        H290   1.087       .  S
C285        C286   1.361       .  D
C291        C292   1.542       .  S
C291        C297   1.533       .  S
C291        C295   1.531       .  S
C291       C1453   1.528       .  S
C292        H299   1.080       .  S
C292        C293   1.369       .  D
C293        C294   1.544       .  S
C293       C1597   1.488       .  S
C294        C298   1.541       .  S
C294        C296   1.544       .  S
C294        H300   1.109       .  S
C295        H301   1.086       .  S
C295        C296   1.367       .  D
C296       C1488   1.488       .  S
C297        H302   1.087       .  S
C297        C298   1.364       .  D
C298        C721   1.477       .  S
C303        C304   1.537       .  S
C303        C309   1.528   1_556  S
C303        C307   1.541   1_556  S
C303       C1429   1.531       .  S
C304        H311   1.085       .  S
C304        C305   1.372       .  D
C305        C306   1.547   1_556  S
C305       C1477   1.495       .  S
C306        C310   1.544       .  S
C306        C308   1.542       .  S
C306        H312   1.109       .  S
C307        H313   1.082       .  S
C307        C308   1.369       .  D
C308       C1525   1.487       .  S
C309        H314   1.087       .  S
C309        C310   1.363       .  D
C310        C711   1.478       .  S
C315        C316   1.546       .  S
C315        C321   1.532       .  S
C315        C319   1.533       .  S
C315       C2352   1.529       .  S
C316        H323   1.080       .  S
C316        C317   1.376       .  D
C317        C318   1.550       .  S
C317       C1416   1.504       .  S
C318        C322   1.541       .  S
C318        C320   1.542       .  S
C318        H324   1.108       .  S
C319        H325   1.087       .  S
C319        C320   1.363       .  D
C320       C1381   1.483       .  S
C321        H326   1.087       .  S
C321        C322   1.362       .  D
C322        C382   1.478       .  S
C327        C328   1.542       .  S
C327        C333   1.530       .  S
C327        C331   1.533       .  S
C327       C2160   1.532       .  S
C328        H335   1.081       .  S
C328        C329   1.373       .  D
C329        C330   1.549       .  S
C329       C1357   1.498       .  S
C330        C334   1.544       .  S
C330        C332   1.551       .  S
C330        H336   1.109       .  S
C331        H337   1.086       .  S
C331        C332   1.369       .  D
C332       C1405   1.496       .  S
C333        H338   1.087       .  S
C333        C334   1.362       .  D
C334        C373   1.479       .  S
C339        C340   1.534       .  S
C339        C345   1.529       .  S
C339        C343   1.543       .  S
C339       C1837   1.529       .  S
C340        H347   1.086       .  S
C340        C341   1.367       .  D
C341        C342   1.547       .  S
C341       C1344   1.493       .  S
C342        C346   1.541       .  S
C342        C344   1.549       .  S
C342        H348   1.109       .  S
C343        H349   1.081       .  S
C343        C344   1.373       .  D
C344       C1368   1.497       .  S
C345        H350   1.087       .  S
C345        C346   1.362       .  D
C346        C717   1.473       .  S
C351        C352   1.538       .  S
C351        C357   1.532       .  S
C351        C355   1.544       .  S
C351       C1309   1.531       .  S
C352        H359   1.084       .  S
C352        C353   1.373       .  D
C353        C354   1.547       .  S
C353       C1392   1.501       .  S
C354        C358   1.538       .  S
C354        C356   1.544       .  S
C354        H360   1.107       .  S
C355        H361   1.081       .  S
C355        C356   1.369       .  D
C356       C1333   1.490       .  S
C357        H362   1.087       .  S
C357        C358   1.361       .  D
C358        C700   1.474       .  S
In363       O365   2.222   1_554  S
In363       O366   2.279   1_554  S
In363       O374   2.234       .  S
In363       O368   2.253       .  S
In363       O370   2.255       .  S
In363       O371   2.265       .  S
In363       O372   2.230       .  S
In363       O375   2.229       .  S
C364        C444   1.474       .  S
C364        O370   1.260       .  A
C364        O372   1.262       .  A
O365        C373   1.259       .  A
O366        C373   1.262       .  A
C367        C408   1.473       .  S
C367        O374   1.261       .  A
C367        O368   1.260       .  A
C369        O371   1.262       .  A
C369        O375   1.259       .  A
In376       O378   2.224   1_556  S
In376       O379   2.260   1_556  S
In376       O387   2.229       .  S
In376       O381   2.278       .  S
In376       O383   2.268       .  S
In376       O384   2.263       .  S
In376       O385   2.232       .  S
In376       O388   2.232       .  S
C377        O383   1.264       .  A
C377        O385   1.260       .  A
O378        C386   1.261       .  A
O379        C386   1.262       .  A
C380        O387   1.260       .  A
C380        O381   1.264       .  A
C382        O384   1.262       .  A
C382        O388   1.261       .  A
C389        C390   1.542       .  S
C389        C395   1.534       .  S
C389        C393   1.536       .  S
C389       C1237   1.532       .  S
C390        H397   1.080       .  S
C390        C391   1.371       .  D
C391        C392   1.548       .  S
C391       C1272   1.500       .  S
C392        C396   1.539       .  S
C392        C394   1.545       .  S
C392        H398   1.108       .  S
C393        H399   1.085       .  S
C393        C394   1.370       .  D
C394       C1285   1.495       .  S
C395        H400   1.087       .  S
C395        C396   1.363       .  D
C396        C652   1.473       .  S
C401        C402   1.535   1_554  S
C401        C407   1.533       .  S
C401        C405   1.546       .  S
C401       C1656   1.532       .  S
C402        H409   1.086       .  S
C402        C403   1.367       .  D
C403        C404   1.544   1_556  S
C403       C1213   1.487       .  S
C404        C408   1.543       .  S
C404        C406   1.542       .  S
C404        H410   1.110       .  S
C405        H411   1.081       .  S
C405        C406   1.370       .  D
C406       C1261   1.493       .  S
C407        H412   1.087       .  S
C407        C408   1.363       .  D
C413        C414   1.544       .  S
C413        C419   1.536   1_554  S
C413        C417   1.536   1_554  S
C413       C1440   1.533       .  S
C414        H421   1.081       .  S
C414        C415   1.366       .  D
C415        C416   1.541   1_554  S
C415       C1296   1.486       .  S
C416        C420   1.541       .  S
C416        C418   1.549       .  S
C416        H422   1.108       .  S
C417        H423   1.085       .  S
C417        C418   1.371       .  D
C418       C1200   1.500       .  S
C419        H424   1.086   1_556  S
C419        C420   1.365       .  D
C420        C698   1.479       .  S
C425        C426   1.533       .  S
C425        C431   1.530       .  S
C425        C429   1.542       .  S
C425       C1165   1.531       .  S
C426        H433   1.085       .  S
C426        C427   1.372       .  D
C427        C428   1.551       .  S
C427       C1189   1.500       .  S
C428        C432   1.542       .  S
C428        C430   1.549       .  S
C428        H434   1.108       .  S
C429        H435   1.079       .  S
C429        C430   1.369       .  D
C430       C1224   1.497       .  S
C431        H436   1.087       .  S
C431        C432   1.362       .  D
C432        C678   1.476       .  S
C437        C438   1.543       .  S
C437        C443   1.529       .  S
C437        C441   1.538   1_554  S
C437       C1693   1.531       .  S
C438        H445   1.082       .  S
C438        C439   1.370       .  D
C439        C440   1.546       .  S
C439       C1117   1.492       .  S
C440        C444   1.541       .  S
C440        C442   1.547   1_554  S
C440        H446   1.108       .  S
C441        H447   1.084       .  S
C441        C442   1.372       .  D
C442       C1141   1.501       .  S
C443        H448   1.087       .  S
C443        C444   1.360       .  D
C449        C450   1.541       .  S
C449        C455   1.532       .  S
C449        C453   1.537       .  S
C449       C1080   1.532       .  S
C450        H457   1.081       .  S
C450        C451   1.369       .  D
C451        C452   1.545       .  S
C451       C1093   1.492       .  S
C452        C456   1.543       .  S
C452        C454   1.548       .  S
C452        H458   1.108       .  S
C453        H459   1.085       .  S
C453        C454   1.373       .  D
C454       C1128   1.502       .  S
C455        H460   1.087       .  S
C455        C456   1.361       .  D
C456        C648   1.476       .  S
C461        C462   1.541       .  S
C461        C467   1.531       .  S
C461        C465   1.534   1_556  S
C461       C1549   1.530       .  S
C462        H469   1.081       .  S
C462        C463   1.370       .  D
C463        C464   1.547       .  S
C463       C1045   1.492       .  S
C464        C468   1.542       .  S
C464        C466   1.547   1_556  S
C464        H470   1.110       .  S
C465        H471   1.086       .  S
C465        C466   1.369       .  D
C466       C1104   1.492       .  S
C467        H472   1.087       .  S
C467        C468   1.363       .  D
C468        C695   1.478       .  S
C473        C474   1.534       .  S
C473        C479   1.532       .  S
C473        C477   1.543       .  S
C473       C1032   1.529       .  S
C474        H481   1.085       .  S
C474        C475   1.369       .  D
C475        C476   1.547       .  S
C475       C1152   1.496       .  S
C476        C480   1.539       .  S
C476        C478   1.544       .  S
C476        H482   1.109       .  S
C477        H483   1.081       .  S
C477        C478   1.368       .  D
C478       C1056   1.489       .  S
C479        H484   1.087       .  S
C479        C480   1.363       .  D
C480        C674   1.474       .  S
C485        C486   1.535       .  S
C485        C491   1.530       .  S
C485        C489   1.543       .  S
C485       C1021   1.527       .  S
C486        H493   1.086       .  S
C486        C487   1.367       .  D
C487        C488   1.545       .  S
C487        C997   1.491       .  S
C488        C492   1.539       .  S
C488        C490   1.548       .  S
C488        H494   1.108       .  S
C489        H495   1.081       .  S
C489        C490   1.374       .  D
C490        C984   1.499       .  S
C491        H496   1.087       .  S
C491        C492   1.360       .  D
C492        C635   1.473       .  S
C497        C498   1.534       .  S
C497        C503   1.533       .  S
C497        C501   1.542       .  S
C497       C1632   1.533       .  S
C498        H505   1.086       .  S
C498        C499   1.370       .  D
C499        C500   1.550       .  S
C499        C973   1.496       .  S
C500        C504   1.542       .  S
C500        C502   1.544       .  S
C500        H506   1.110       .  S
C501        H507   1.081       .  S
C501        C502   1.368       .  D
C502        C949   1.490       .  S
C503        H508   1.087       .  S
C503        C504   1.365       .  D
C509        C510   1.533       .  S
C509        C515   1.535       .  S
C509        C513   1.540       .  S
C509       C1464   1.529       .  S
C510        H517   1.086       .  S
C510        C511   1.368       .  D
C511        C512   1.547       .  S
C511        C925   1.493       .  S
C512        C516   1.539       .  S
C512        C514   1.544       .  S
C512        H518   1.109       .  S
C513        H519   1.079       .  S
C513        C514   1.368       .  D
C514       C1008   1.491       .  S
C515        H520   1.087       .  S
C515        C516   1.364       .  D
C516        C685   1.474       .  S
C521        C522   1.544       .  S
C521        C527   1.531       .  S
C521        C525   1.537       .  S
C521       C1176   1.530       .  S
C522        H529   1.082       .  S
C522        C523   1.368       .  D
C523        C524   1.545       .  S
C523        C960   1.487       .  S
C524        C528   1.541       .  S
C524        C526   1.548       .  S
C524        H530   1.108       .  S
C525        H531   1.084       .  S
C525        C526   1.372       .  D
C526        C936   1.502       .  S
C527        H532   1.087       .  S
C527        C528   1.362       .  D
C528        C656   1.477       .  S
C533        C534   1.535       .  S
C533        C539   1.532       .  S
C533        C537   1.543       .  S
C533       C1741   1.531       .  S
C534        H541   1.086       .  S
C534        C535   1.368       .  D
C535        C536   1.548       .  S
C535        C912   1.495       .  S
C536        C540   1.540       .  S
C536        C538   1.548       .  S
C536        H542   1.108       .  S
C537        H543   1.080       .  S
C537        C538   1.372       .  D
C538        C888   1.497       .  S
C539        H544   1.087       .  S
C539        C540   1.363       .  D
C545        C546   1.534       .  S
C545        C551   1.531       .  S
C545        C549   1.542       .  S
C545       C1069   1.530       .  S
C546        H553   1.086       .  S
C546        C547   1.368       .  D
C547        C548   1.547       .  S
C547        C877   1.493       .  S
C548        C552   1.542       .  S
C548        C550   1.546       .  S
C548        H554   1.109       .  S
C549        H555   1.081       .  S
C549        C550   1.371       .  D
C550        C853   1.492       .  S
C551        H556   1.087       .  S
C551        C552   1.362       .  D
C552        C639   1.474       .  S
C557        C558   1.537       .  S
C557        C563   1.532       .  S
C557        C561   1.543       .  S
C557       C1501   1.533       .  S
C558        H565   1.086       .  S
C558        C559   1.369       .  D
C559        C560   1.544       .  S
C559        C864   1.493       .  S
C560        C564   1.539       .  S
C560        C562   1.547       .  S
C560        H566   1.108       .  S
C561        H567   1.081       .  S
C561        C562   1.372       .  D
C562        C829   1.497       .  S
C563        H568   1.087       .  S
C563        C564   1.363       .  D
C564        C682   1.475       .  S
C569        C570   1.542       .  S
C569        C575   1.534       .  S
C569        C573   1.536       .  S
C569       C1248   1.532       .  S
C570        H577   1.081       .  S
C570        C571   1.368       .  D
C571        C572   1.543       .  S
C571        C840   1.489       .  S
C572        C576   1.539       .  S
C572        C574   1.547       .  S
C572        H578   1.108       .  S
C573        H579   1.085       .  S
C573        C574   1.372       .  D
C574        C901   1.498       .  S
C575        H580   1.087       .  S
C575        C576   1.363       .  D
C576        C659   1.475       .  S
C581        C582   1.545       .  S
C581        C587   1.535       .  S
C581        C585   1.536       .  S
C581       C1896   1.535       .  S
C582        H589   1.081       .  S
C582        C583   1.370       .  D
C583        C584   1.541       .  S
C583        C805   1.489       .  S
C584        C588   1.539       .  S
C584        C586   1.544       .  S
C584        H590   1.109       .  S
C585        H591   1.085       .  S
C585        C586   1.370       .  D
C586        C792   1.494       .  S
C587        H592   1.086       .  S
C587        C588   1.366       .  D
C588        C665   1.478       .  S
C593        C594   1.538       .  S
C593        C599   1.531       .  S
C593        C597   1.543       .  S
C593       C1320   1.533       .  S
C594        H601   1.085       .  S
C594        C595   1.372       .  D
C595        C596   1.548       .  S
C595        C781   1.499       .  S
C596        C600   1.542       .  S
C596        C598   1.545       .  S
C596        H602   1.109       .  S
C597        H603   1.081       .  S
C597        C598   1.368       .  D
C598        C757   1.491       .  S
C599        H604   1.087       .  S
C599        C600   1.363       .  D
C600        C672   1.476       .  S
C605        C606   1.532       .  S
C605        C611   1.534       .  S
C605        C609   1.535       .  S
C605       C1992   1.534       .  S
C606        H613   1.086       .  S
C606        C607   1.371       .  D
C607        C608   1.546       .  S
C607        C733   1.492       .  S
C608        C612   1.544       .  S
C608        C610   1.549       .  S
C608        H614   1.109       .  S
C609        H615   1.085       .  S
C609        C610   1.371       .  D
C610        C816   1.496       .  S
C611        H616   1.081       .  S
C611        C612   1.364       .  D
C612        C643   1.481       .  S
C617        C618   1.540       .  S
C617        C623   1.532       .  S
C617        C621   1.544       .  S
C617       C2389   1.532       .  S
C618        H625   1.086       .  S
C618        C619   1.369       .  D
C619        C620   1.541       .  S
C619        C768   1.487       .  S
C620        C624   1.539       .  S
C620        C622   1.538       .  S
C620        H626   1.110       .  S
C621        H627   1.081       .  S
C621        C622   1.369       .  D
C622        C744   1.485       .  S
C623        H628   1.087       .  S
C623        C624   1.363       .  D
C624        C630   1.473       .  S
In629       O631   2.227       .  S
In629       O632   2.262       .  S
In629       O640   2.218       .  S
In629       O634   2.270       .  S
In629       O636   2.257       .  S
In629       O637   2.257       .  S
In629       O638   2.231       .  S
In629       O641   2.228       .  S
C630        O636   1.261       .  A
C630        O638   1.260       .  A
O631        C639   1.261       .  A
O632        C639   1.261       .  A
C633        O640   1.260       .  A
C633        O634   1.261       .  A
C635        O637   1.261       .  A
C635        O641   1.260       .  A
In642       O644   2.240       .  S
In642       O645   2.244       .  S
In642       O653   2.211       .  S
In642       O647   2.275       .  S
In642       O649   2.290       .  S
In642       O650   2.252       .  S
In642       O651   2.206       .  S
In642       O654   2.237       .  S
C643        O649   1.264       .  A
C643        O651   1.259       .  A
O644        C652   1.262       .  A
O645        C652   1.260       .  A
C646        O653   1.258       .  A
C646        O647   1.265       .  A
C648        O650   1.260       .  A
C648        O654   1.263       .  A
In655       O657   2.234       .  S
In655       O658   2.265       .  S
In655       O666   2.234       .  S
In655       O660   2.253       .  S
In655       O662   2.266       .  S
In655       O663   2.266       .  S
In655       O664   2.229       .  S
In655       O667   2.227       .  S
C656        O662   1.262       .  A
C656        O664   1.260       .  A
O657        C665   1.260       .  A
O658        C665   1.263       .  A
C659        O666   1.261       .  A
C659        O660   1.262       .  A
C661        O663   1.263       .  A
C661        O667   1.261       .  A
In668       O670   2.220       .  S
In668       O671   2.267       .  S
In668       O679   2.232       .  S
In668       O673   2.260       .  S
In668       O675   2.255       .  S
In668       O676   2.259       .  S
In668       O677   2.223       .  S
In668       O680   2.224       .  S
C669        O675   1.262       .  A
C669        O677   1.260       .  A
O670        C678   1.260       .  A
O671        C678   1.263       .  A
C672        O679   1.261       .  A
C672        O673   1.261       .  A
C674        O676   1.262       .  A
C674        O680   1.260       .  A
In681       O683   2.223       .  S
In681       O684   2.258       .  S
In681       O692   2.237       .  S
In681       O686   2.254       .  S
In681       O688   2.256       .  S
In681       O689   2.258       .  S
In681       O690   2.234       .  S
In681       O693   2.230       .  S
C682        O688   1.261       .  A
C682        O690   1.260       .  A
O683        C691   1.260       .  A
O684        C691   1.262       .  A
C685        O692   1.261       .  A
C685        O686   1.261       .  A
C687        O689   1.261       .  A
C687        O693   1.260       .  A
In694       O696   2.233   1_556  S
In694       O697   2.258   1_556  S
In694       O705   2.242       .  S
In694       O699   2.265       .  S
In694       O701   2.273       .  S
In694       O702   2.254       .  S
In694       O703   2.228       .  S
In694       O706   2.238       .  S
C695        O701   1.262       .  A
C695        O703   1.260       .  A
O696        C704   1.261       .  A
O697        C704   1.260       .  A
C698        O705   1.260       .  A
C698        O699   1.261       .  A
C700        O702   1.260       .  A
C700        O706   1.261       .  A
In707       O709   2.220   1_554  S
In707       O710   2.259   1_554  S
In707       O718   2.222       .  S
In707       O712   2.274       .  S
In707       O714   2.255       .  S
In707       O715   2.252       .  S
In707       O716   2.225       .  S
In707       O719   2.228       .  S
C708        O714   1.263       .  A
C708        O716   1.260       .  A
O709        C717   1.261       .  A
O710        C717   1.262       .  A
C711        O718   1.260       .  A
C711        O712   1.263       .  A
C713        O715   1.262       .  A
C713        O719   1.261       .  A
In720       O722   2.233       .  S
In720       O723   2.255       .  S
In720       O731   2.224       .  S
In720       O725   2.265       .  S
In720       O727   2.268       .  S
In720       O728   2.257       .  S
In720       O729   2.227       .  S
In720       O732   2.233       .  S
C721        O727   1.262       .  A
C721        O729   1.260       .  A
O722        C730   1.261       .  A
O723        C730   1.261       .  A
C724        O731   1.260       .  A
C724        O725   1.263       .  A
C726        O728   1.261       .  A
C726        O732   1.261       .  A
C733        C734   1.405       .  A
C733        C738   1.408       .  A
C734        C735   1.392       .  A
C734        H747   1.082       .  S
C735        C736   1.402       .  A
C735        H748   1.084       .  S
C736        C739   1.489       .  S
C736        C737   1.410       .  A
C737        C738   1.407       .  A
C737        H749   1.081       .  S
C738        H750   1.082       .  S
C739        H751   1.085       .  S
C739        C740   1.349       .  D
C740        H752   1.084       .  S
C740        C741   1.493       .  S
C741        C742   1.406       .  A
C741        C746   1.408       .  A
C742        C743   1.405       .  A
C742        H753   1.083       .  S
C743        C744   1.405       .  A
C743        H754   1.083       .  S
C744        C745   1.402       .  A
C745        C746   1.394       .  A
C745        H755   1.083       .  S
C746        H756   1.081       .  S
C757        C758   1.403       .  A
C757        C762   1.406       .  A
C758        C759   1.402       .  A
C758        H771   1.079       .  S
C759        C760   1.406       .  A
C759        H772   1.083       .  S
C760        C763   1.495       .  S
C760        C761   1.409       .  A
C761        C762   1.400       .  A
C761        H773   1.080       .  S
C762        H774   1.083       .  S
C763        H775   1.084       .  S
C763        C764   1.352       .  D
C764        H776   1.084       .  S
C764        C765   1.495       .  S
C765        C766   1.406       .  A
C765        C770   1.411       .  A
C766        C767   1.399       .  A
C766        H777   1.083       .  S
C767        C768   1.404       .  A
C767        H778   1.083       .  S
C768        C769   1.404       .  A
C769        C770   1.403       .  A
C769        H779   1.083       .  S
C770        H780   1.080       .  S
C781        C782   1.408       .  A
C781        C786   1.407       .  A
C782        C783   1.398       .  A
C782        H795   1.082       .  S
C783        C784   1.403       .  A
C783        H796   1.084       .  S
C784        C787   1.491       .  S
C784        C785   1.408       .  A
C785        C786   1.403       .  A
C785        H797   1.081       .  S
C786        H798   1.078       .  S
C787        H799   1.087       .  S
C787        C788   1.349       .  D
C788        H800   1.085       .  S
C788        C789   1.490       .  S
C789        C790   1.405       .  A
C789        C794   1.406       .  A
C790        C791   1.404       .  A
C790        H801   1.083       .  S
C791        C792   1.407       .  A
C791        H802   1.082       .  S
C792        C793   1.407       .  A
C793        C794   1.396       .  A
C793        H803   1.082       .  S
C794        H804   1.082       .  S
C805        C806   1.405       .  A
C805        C810   1.404       .  A
C806        C807   1.404       .  A
C806        H819   1.083       .  S
C807        C808   1.406       .  A
C807        H820   1.083       .  S
C808        C811   1.495       .  S
C808        C809   1.409       .  A
C809        C810   1.396       .  A
C809        H821   1.081       .  S
C810        H822   1.083       .  S
C811        H823   1.084       .  S
C811        C812   1.350       .  D
C812        H824   1.085       .  S
C812        C813   1.492       .  S
C813        C814   1.402       .  A
C813        C818   1.410       .  A
C814        C815   1.394       .  A
C814        H825   1.084       .  S
C815        C816   1.407       .  A
C815        H826   1.082       .  S
C816        C817   1.407       .  A
C817        C818   1.407       .  A
C817        H827   1.082       .  S
C818        H828   1.080       .  S
C829        C830   1.405       .  A
C829        C834   1.408       .  A
C830        C831   1.399       .  A
C830        H843   1.075       .  S
C831        C832   1.403       .  A
C831        H844   1.083       .  S
C832        C835   1.492       .  S
C832        C833   1.409       .  A
C833        C834   1.400       .  A
C833        H845   1.080       .  S
C834        H846   1.082       .  S
C835        H847   1.083       .  S
C835        C836   1.350   1_545  D
C836        H848   1.084       .  S
C836        C837   1.494       .  S
C837        C838   1.404       .  A
C837        C842   1.411       .  A
C838        C839   1.397       .  A
C838        H849   1.083       .  S
C839        C840   1.405       .  A
C839        H850   1.083       .  S
C840        C841   1.403       .  A
C841        C842   1.402       .  A
C841        H851   1.079       .  S
C842        H852   1.080       .  S
C853        C854   1.404       .  A
C853        C858   1.407       .  A
C854        C855   1.400       .  A
C854        H867   1.077       .  S
C855        C856   1.404       .  A
C855        H868   1.083       .  S
C856        C859   1.490       .  S
C856        C857   1.408       .  A
C857        C858   1.398       .  A
C857        H869   1.080       .  S
C858        H870   1.082       .  S
C859        H871   1.085       .  S
C859        C860   1.349       .  D
C860        H872   1.084       .  S
C860        C861   1.488       .  S
C861        C862   1.403       .  A
C861        C866   1.407       .  A
C862        C863   1.397       .  A
C862        H873   1.083       .  S
C863        C864   1.407       .  A
C863        H874   1.082       .  S
C864        C865   1.405       .  A
C865        C866   1.400       .  A
C865        H875   1.076       .  S
C866        H876   1.081       .  S
C877        C878   1.407   1_655  A
C877        C882   1.404       .  A
C878        C879   1.397       .  A
C878        H891   1.083       .  S
C879        C880   1.403       .  A
C879        H892   1.083       .  S
C880        C883   1.492       .  S
C880        C881   1.409       .  A
C881        C882   1.403   1_455  A
C881        H893   1.081       .  S
C882        H894   1.077       .  S
C883        H895   1.084       .  S
C883        C884   1.349       .  D
C884        H896   1.084       .  S
C884        C885   1.492       .  S
C885        C886   1.403       .  A
C885        C890   1.409       .  A
C886        C887   1.399       .  A
C886        H897   1.083       .  S
C887        C888   1.405       .  A
C887        H898   1.075       .  S
C888        C889   1.408       .  A
C889        C890   1.400       .  A
C889        H899   1.082       .  S
C890        H900   1.081       .  S
C901        C902   1.407       .  A
C901        C906   1.409   1_655  A
C902        C903   1.400   1_655  A
C902        H915   1.078       .  S
C903        C904   1.404       .  A
C903        H916   1.083   1_455  S
C904        C907   1.491       .  S
C904        C905   1.407       .  A
C905        C906   1.397       .  A
C905        H917   1.080       .  S
C906        H918   1.081       .  S
C907        H919   1.083   1_565  S
C907        C908   1.351       .  D
C908        H920   1.084       .  S
C908        C909   1.492   1_565  S
C909        C910   1.404       .  A
C909        C914   1.408       .  A
C910        C911   1.398       .  A
C910        H921   1.083   1_545  S
C911        C912   1.407       .  A
C911        H922   1.082       .  S
C912        C913   1.404       .  A
C913        C914   1.400       .  A
C913        H923   1.075       .  S
C914        H924   1.080       .  S
C925        C926   1.407       .  A
C925        C930   1.404       .  A
C926        C927   1.397       .  A
C926        H939   1.082       .  S
C927        C928   1.403       .  A
C927        H940   1.083   1_545  S
C928        C931   1.492   1_545  S
C928        C929   1.409       .  A
C929        C930   1.402       .  A
C929        H941   1.080       .  S
C930        H942   1.078       .  S
C931        H943   1.085       .  S
C931        C932   1.349       .  D
C932        H944   1.084   1_565  S
C932        C933   1.490       .  S
C933        C934   1.402       .  A
C933        C938   1.407       .  A
C934        C935   1.399       .  A
C934        H945   1.083       .  S
C935        C936   1.408       .  A
C935        H946   1.077       .  S
C936        C937   1.410       .  A
C937        C938   1.399       .  A
C937        H947   1.081       .  S
C938        H948   1.081       .  S
C949        C950   1.407       .  A
C949        C954   1.403       .  A
C950        C951   1.397       .  A
C950        H963   1.083       .  S
C951        C952   1.402       .  A
C951        H964   1.083   1_545  S
C952        C955   1.491   1_545  S
C952        C953   1.411       .  A
C953        C954   1.403       .  A
C953        H965   1.081       .  S
C954        H966   1.081       .  S
C955        H967   1.084       .  S
C955        C956   1.348       .  D
C956        H968   1.085   1_565  S
C956        C957   1.492       .  S
C957        C958   1.404       .  A
C957        C962   1.411       .  A
C958        C959   1.397   1_455  A
C958        H969   1.083   1_455  S
C959        C960   1.401       .  A
C959        H970   1.078       .  S
C960        C961   1.406   1_655  A
C961        C962   1.403       .  A
C961        H971   1.083       .  S
C962        H972   1.081       .  S
C973        C974   1.407       .  A
C973        C978   1.406       .  A
C974        C975   1.396       .  A
C974        H987   1.082       .  S
C975        C976   1.403       .  A
C975        H988   1.084       .  S
C976        C979   1.494       .  S
C976        C977   1.411       .  A
C977        C978   1.405       .  A
C977        H989   1.081       .  S
C978        H990   1.080       .  S
C979        H991   1.084       .  S
C979        C980   1.349       .  D
C980        H992   1.084       .  S
C980        C981   1.495       .  S
C981        C982   1.403       .  A
C981        C986   1.409       .  A
C982        C983   1.400   1_455  A
C982        H993   1.083   1_455  S
C983        C984   1.406       .  A
C983        H994   1.076       .  S
C984        C985   1.408   1_655  A
C985        C986   1.401       .  A
C985        H995   1.082       .  S
C986        H996   1.080       .  S
C997        C998   1.407       .  A
C997       C1002   1.403       .  A
C998        C999   1.397       .  A
C998       H1011   1.082       .  S
C999       C1000   1.403       .  A
C999       H1012   1.083       .  S
C1000      C1003   1.489       .  S
C1000      C1001   1.408       .  A
C1001      C1002   1.399       .  A
C1001      H1013   1.080       .  S
C1002      H1014   1.077       .  S
C1003      H1015   1.084       .  S
C1003      C1004   1.349       .  D
C1004      H1016   1.083       .  S
C1004      C1005   1.489       .  S
C1005      C1006   1.405       .  A
C1005      C1010   1.407       .  A
C1006      C1007   1.400       .  A
C1006      H1017   1.083       .  S
C1007      C1008   1.403       .  A
C1007      H1018   1.078       .  S
C1008      C1009   1.407       .  A
C1009      C1010   1.396       .  A
C1009      H1019   1.082       .  S
C1010      H1020   1.080       .  S
C1021      C1022   1.410       .  A
C1021      C1026   1.410       .  A
C1022      C1023   1.394       .  A
C1022      H1035   1.083       .  S
C1023      C1024   1.399       .  A
C1023      H1036   1.084       .  S
C1024      C1027   1.483       .  S
C1024      C1025   1.406       .  A
C1025      C1026   1.401       .  A
C1025      H1037   1.082       .  S
C1026      H1038   1.078       .  S
C1027      H1039   1.085       .  S
C1027      C1028   1.346       .  D
C1028      H1040   1.086       .  S
C1028      C1029   1.486       .  S
C1029      C1030   1.401       .  A
C1029      C1034   1.406       .  A
C1030      C1031   1.397       .  A
C1030      H1041   1.083       .  S
C1031      C1032   1.410       .  A
C1031      H1042   1.083       .  S
C1032      C1033   1.410       .  A
C1033      C1034   1.398       .  A
C1033      H1043   1.076       .  S
C1034      H1044   1.082       .  S
C1045      C1046   1.407       .  A
C1045      C1050   1.404       .  A
C1046      C1047   1.397       .  A
C1046      H1059   1.083       .  S
C1047      C1048   1.403       .  A
C1047      H1060   1.084       .  S
C1048      C1051   1.491       .  S
C1048      C1049   1.410       .  A
C1049      C1050   1.402       .  A
C1049      H1061   1.081       .  S
C1050      H1062   1.080       .  S
C1051      H1063   1.084       .  S
C1051      C1052   1.349       .  D
C1052      H1064   1.084       .  S
C1052      C1053   1.491       .  S
C1053      C1054   1.404       .  A
C1053      C1058   1.409       .  A
C1054      C1055   1.399       .  A
C1054      H1065   1.083       .  S
C1055      C1056   1.402       .  A
C1055      H1066   1.078       .  S
C1056      C1057   1.407       .  A
C1057      C1058   1.400       .  A
C1057      H1067   1.083       .  S
C1058      H1068   1.081       .  S
C1069      C1070   1.408       .  A
C1069      C1074   1.411       .  A
C1070      C1071   1.395       .  A
C1070      H1083   1.083       .  S
C1071      C1072   1.402       .  A
C1071      H1084   1.083       .  S
C1072      C1075   1.491       .  S
C1072      C1073   1.408       .  A
C1073      C1074   1.402       .  A
C1073      H1085   1.081       .  S
C1074      H1086   1.077       .  S
C1075      H1087   1.083       .  S
C1075      C1076   1.349       .  D
C1076      H1088   1.084       .  S
C1076      C1077   1.493       .  S
C1077      C1078   1.403       .  A
C1077      C1082   1.408       .  A
C1078      C1079   1.400       .  A
C1078      H1089   1.084       .  S
C1079      C1080   1.411       .  A
C1079      H1090   1.077       .  S
C1080      C1081   1.409       .  A
C1081      C1082   1.398       .  A
C1081      H1091   1.083       .  S
C1082      H1092   1.080       .  S
C1093      C1094   1.403       .  A
C1093      C1098   1.406       .  A
C1094      C1095   1.401       .  A
C1094      H1107   1.078       .  S
C1095      C1096   1.405       .  A
C1095      H1108   1.083       .  S
C1096      C1099   1.496       .  S
C1096      C1097   1.410       .  A
C1097      C1098   1.399       .  A
C1097      H1109   1.080       .  S
C1098      H1110   1.083       .  S
C1099      H1111   1.084       .  S
C1099      C1100   1.350       .  D
C1100      H1112   1.083       .  S
C1100      C1101   1.492       .  S
C1101      C1102   1.403       .  A
C1101      C1106   1.410       .  A
C1102      C1103   1.396       .  A
C1102      H1113   1.084       .  S
C1103      C1104   1.406       .  A
C1103      H1114   1.083       .  S
C1104      C1105   1.405       .  A
C1105      C1106   1.405       .  A
C1105      H1115   1.080       .  S
C1106      H1116   1.081       .  S
C1117      C1118   1.403       .  A
C1117      C1122   1.404       .  A
C1118      C1119   1.401       .  A
C1118      H1131   1.078       .  S
C1119      C1120   1.406       .  A
C1119      H1132   1.083       .  S
C1120      C1123   1.500       .  S
C1120      C1121   1.412       .  A
C1121      C1122   1.401       .  A
C1121      H1133   1.079       .  S
C1122      H1134   1.083       .  S
C1123      H1135   1.085       .  S
C1123      C1124   1.351       .  D
C1124      H1136   1.082       .  S
C1124      C1125   1.492       .  S
C1125      C1126   1.402       .  A
C1125      C1130   1.407       .  A
C1126      C1127   1.397       .  A
C1126      H1137   1.083       .  S
C1127      C1128   1.408   1_455  A
C1127      H1138   1.081       .  S
C1128      C1129   1.409       .  A
C1129      C1130   1.404   1_655  A
C1129      H1139   1.077       .  S
C1130      H1140   1.082       .  S
C1141      C1142   1.407       .  A
C1141      C1146   1.410       .  A
C1142      C1143   1.399       .  A
C1142      H1155   1.077       .  S
C1143      C1144   1.402       .  A
C1143      H1156   1.083       .  S
C1144      C1147   1.490       .  S
C1144      C1145   1.407       .  A
C1145      C1146   1.399       .  A
C1145      H1157   1.081       .  S
C1146      H1158   1.081       .  S
C1147      H1159   1.083       .  S
C1147      C1148   1.349       .  D
C1148      H1160   1.085       .  S
C1148      C1149   1.493       .  S
C1149      C1150   1.403       .  A
C1149      C1154   1.409       .  A
C1150      C1151   1.397       .  A
C1150      H1161   1.083       .  S
C1151      C1152   1.408   1_455  A
C1151      H1162   1.082       .  S
C1152      C1153   1.405       .  A
C1153      C1154   1.401   1_655  A
C1153      H1163   1.078       .  S
C1154      H1164   1.080       .  S
C1165      C1166   1.410       .  A
C1165      C1170   1.411       .  A
C1166      C1167   1.396       .  A
C1166      H1179   1.076       .  S
C1167      C1168   1.401       .  A
C1167      H1180   1.084       .  S
C1168      C1171   1.488       .  S
C1168      C1169   1.406       .  A
C1169      C1170   1.399       .  A
C1169      H1181   1.081       .  S
C1170      H1182   1.083       .  S
C1171      H1183   1.084       .  S
C1171      C1172   1.348       .  D
C1172      H1184   1.085       .  S
C1172      C1173   1.490       .  S
C1173      C1174   1.401       .  A
C1173      C1178   1.408       .  A
C1174      C1175   1.397       .  A
C1174      H1185   1.083       .  S
C1175      C1176   1.410       .  A
C1175      H1186   1.083       .  S
C1176      C1177   1.409       .  A
C1177      C1178   1.400       .  A
C1177      H1187   1.077       .  S
C1178      H1188   1.081       .  S
C1189      C1190   1.409       .  A
C1189      C1194   1.407       .  A
C1190      C1191   1.398       .  A
C1190      H1203   1.081       .  S
C1191      C1192   1.402       .  A
C1191      H1204   1.083       .  S
C1192      C1195   1.492       .  S
C1192      C1193   1.408       .  A
C1193      C1194   1.402       .  A
C1193      H1205   1.081       .  S
C1194      H1206   1.077       .  S
C1195      H1207   1.084       .  S
C1195      C1196   1.350       .  D
C1196      H1208   1.084       .  S
C1196      C1197   1.494       .  S
C1197      C1198   1.403       .  A
C1197      C1202   1.408       .  A
C1198      C1199   1.399       .  A
C1198      H1209   1.083       .  S
C1199      C1200   1.406       .  A
C1199      H1210   1.077       .  S
C1200      C1201   1.410       .  A
C1201      C1202   1.401       .  A
C1201      H1211   1.081       .  S
C1202      H1212   1.080       .  S
C1213      C1214   1.405       .  A
C1213      C1218   1.402       .  A
C1214      C1215   1.398       .  A
C1214      H1227   1.083       .  S
C1215      C1216   1.404       .  A
C1215      H1228   1.083       .  S
C1216      C1219   1.493       .  S
C1216      C1217   1.410       .  A
C1217      C1218   1.402       .  A
C1217      H1229   1.081       .  S
C1218      H1230   1.079       .  S
C1219      H1231   1.085       .  S
C1219      C1220   1.350       .  D
C1220      H1232   1.084       .  S
C1220      C1221   1.492       .  S
C1221      C1222   1.404       .  A
C1221      C1226   1.407       .  A
C1222      C1223   1.400   1_455  A
C1222      H1233   1.083   1_455  S
C1223      C1224   1.404       .  A
C1223      H1234   1.077       .  S
C1224      C1225   1.410   1_655  A
C1225      C1226   1.400       .  A
C1225      H1235   1.082       .  S
C1226      H1236   1.081       .  S
C1237      C1238   1.409       .  A
C1237      C1242   1.412       .  A
C1238      C1239   1.396       .  A
C1238      H1251   1.083       .  S
C1239      C1240   1.401       .  A
C1239      H1252   1.083       .  S
C1240      C1243   1.488       .  S
C1240      C1241   1.406       .  A
C1241      C1242   1.402       .  A
C1241      H1253   1.082       .  S
C1242      H1254   1.077       .  S
C1243      H1255   1.086       .  S
C1243      C1244   1.348       .  D
C1244      H1256   1.085       .  S
C1244      C1245   1.488       .  S
C1245      C1246   1.401       .  A
C1245      C1250   1.406       .  A
C1246      C1247   1.398       .  A
C1246      H1257   1.083       .  S
C1247      C1248   1.410       .  A
C1247      H1258   1.083       .  S
C1248      C1249   1.411       .  A
C1249      C1250   1.400       .  A
C1249      H1259   1.076       .  S
C1250      H1260   1.082       .  S
C1261      C1262   1.405       .  A
C1261      C1266   1.405       .  A
C1262      C1263   1.398       .  A
C1262      H1275   1.083       .  S
C1263      C1264   1.405       .  A
C1263      H1276   1.083       .  S
C1264      C1267   1.496       .  S
C1264      C1265   1.411       .  A
C1265      C1266   1.405       .  A
C1265      H1277   1.080       .  S
C1266      H1278   1.079       .  S
C1267      H1279   1.085       .  S
C1267      C1268   1.352       .  D
C1268      H1280   1.084       .  S
C1268      C1269   1.497       .  S
C1269      C1270   1.406   1_455  A
C1269      C1274   1.408       .  A
C1270      C1271   1.404       .  A
C1270      H1281   1.083       .  S
C1271      C1272   1.407       .  A
C1271      H1282   1.078       .  S
C1272      C1273   1.408   1_655  A
C1273      C1274   1.398       .  A
C1273      H1283   1.082       .  S
C1274      H1284   1.081       .  S
C1285      C1286   1.408       .  A
C1285      C1290   1.406       .  A
C1286      C1287   1.397       .  A
C1286      H1299   1.082       .  S
C1287      C1288   1.403       .  A
C1287      H1300   1.083       .  S
C1288      C1291   1.491       .  S
C1288      C1289   1.408       .  A
C1289      C1290   1.401       .  A
C1289      H1301   1.081       .  S
C1290      H1302   1.078       .  S
C1291      H1303   1.082       .  S
C1291      C1292   1.351       .  D
C1292      H1304   1.084       .  S
C1292      C1293   1.495       .  S
C1293      C1294   1.406       .  A
C1293      C1298   1.411       .  A
C1294      C1295   1.399       .  A
C1294      H1305   1.083       .  S
C1295      C1296   1.401       .  A
C1295      H1306   1.079       .  S
C1296      C1297   1.404       .  A
C1297      C1298   1.399       .  A
C1297      H1307   1.083       .  S
C1298      H1308   1.079       .  S
C1309      C1310   1.410       .  A
C1309      C1314   1.411       .  A
C1310      C1311   1.398       .  A
C1310      H1323   1.083       .  S
C1311      C1312   1.401       .  A
C1311      H1324   1.083       .  S
C1312      C1315   1.489       .  S
C1312      C1313   1.406       .  A
C1313      C1314   1.401       .  A
C1313      H1325   1.082       .  S
C1314      H1326   1.077       .  S
C1315      H1327   1.085       .  S
C1315      C1316   1.349       .  D
C1316      H1328   1.086       .  S
C1316      C1317   1.490       .  S
C1317      C1318   1.402       .  A
C1317      C1322   1.406       .  A
C1318      C1319   1.398       .  A
C1318      H1329   1.083       .  S
C1319      C1320   1.409       .  A
C1319      H1330   1.083       .  S
C1320      C1321   1.412       .  A
C1321      C1322   1.402       .  A
C1321      H1331   1.077       .  S
C1322      H1332   1.081       .  S
C1333      C1334   1.402       .  A
C1333      C1338   1.406       .  A
C1334      C1335   1.397       .  A
C1334      H1347   1.077       .  S
C1335      C1336   1.403       .  A
C1335      H1348   1.083       .  S
C1336      C1339   1.491       .  S
C1336      C1337   1.410       .  A
C1337      C1338   1.401       .  A
C1337      H1349   1.081       .  S
C1338      H1350   1.083       .  S
C1339      H1351   1.085       .  S
C1339      C1340   1.348       .  D
C1340      H1352   1.084       .  S
C1340      C1341   1.490       .  S
C1341      C1342   1.402       .  A
C1341      C1346   1.409       .  A
C1342      C1343   1.397       .  A
C1342      H1353   1.083       .  S
C1343      C1344   1.408       .  A
C1343      H1354   1.082       .  S
C1344      C1345   1.404       .  A
C1345      C1346   1.401       .  A
C1345      H1355   1.078       .  S
C1346      H1356   1.081       .  S
C1357      C1358   1.407       .  A
C1357      C1362   1.407       .  A
C1358      C1359   1.397       .  A
C1358      H1371   1.082       .  S
C1359      C1360   1.403       .  A
C1359      H1372   1.083       .  S
C1360      C1363   1.495       .  S
C1360      C1361   1.410       .  A
C1361      C1362   1.406       .  A
C1361      H1373   1.081       .  S
C1362      H1374   1.080       .  S
C1363      H1375   1.084       .  S
C1363      C1364   1.351       .  D
C1364      H1376   1.084       .  S
C1364      C1365   1.498       .  S
C1365      C1366   1.406       .  A
C1365      C1370   1.410       .  A
C1366      C1367   1.402       .  A
C1366      H1377   1.083       .  S
C1367      C1368   1.404       .  A
C1367      H1378   1.077       .  S
C1368      C1369   1.407       .  A
C1369      C1370   1.401       .  A
C1369      H1379   1.082       .  S
C1370      H1380   1.080       .  S
C1381      C1382   1.404       .  A
C1381      C1386   1.401       .  A
C1382      C1383   1.396       .  A
C1382      H1395   1.083       .  S
C1383      C1384   1.405       .  A
C1383      H1396   1.083       .  S
C1384      C1387   1.492       .  S
C1384      C1385   1.411       .  A
C1385      C1386   1.400       .  A
C1385      H1397   1.080       .  S
C1386      H1398   1.080       .  S
C1387      H1399   1.083       .  S
C1387      C1388   1.349       .  D
C1388      H1400   1.083       .  S
C1388      C1389   1.492       .  S
C1389      C1390   1.402       .  A
C1389      C1394   1.408       .  A
C1390      C1391   1.398       .  A
C1390      H1401   1.084       .  S
C1391      C1392   1.408       .  A
C1391      H1402   1.076       .  S
C1392      C1393   1.409       .  A
C1393      C1394   1.398       .  A
C1393      H1403   1.081       .  S
C1394      H1404   1.080       .  S
C1405      C1406   1.407       .  A
C1405      C1410   1.405       .  A
C1406      C1407   1.397       .  A
C1406      H1419   1.082       .  S
C1407      C1408   1.404       .  A
C1407      H1420   1.084       .  S
C1408      C1411   1.498       .  S
C1408      C1409   1.412       .  A
C1409      C1410   1.405       .  A
C1409      H1421   1.080       .  S
C1410      H1422   1.080       .  S
C1411      H1423   1.084       .  S
C1411      C1412   1.351       .  D
C1412      H1424   1.083       .  S
C1412      C1413   1.497       .  S
C1413      C1414   1.404       .  A
C1413      C1418   1.409       .  A
C1414      C1415   1.401       .  A
C1414      H1425   1.083       .  S
C1415      C1416   1.408       .  A
C1415      H1426   1.078       .  S
C1416      C1417   1.410       .  A
C1417      C1418   1.401       .  A
C1417      H1427   1.081       .  S
C1418      H1428   1.081       .  S
C1429      C1430   1.409       .  A
C1429      C1434   1.411   1_556  A
C1430      C1431   1.397       .  A
C1430      H1443   1.083       .  S
C1431      C1432   1.402       .  A
C1431      H1444   1.083       .  S
C1432      C1435   1.489       .  S
C1432      C1433   1.407   1_556  A
C1433      C1434   1.400       .  A
C1433      H1445   1.081       .  S
C1434      H1446   1.077       .  S
C1435      H1447   1.084       .  S
C1435      C1436   1.349   1_556  D
C1436      H1448   1.085       .  S
C1436      C1437   1.491       .  S
C1437      C1438   1.402       .  A
C1437      C1442   1.407   1_554  A
C1438      C1439   1.399       .  A
C1438      H1449   1.084       .  S
C1439      C1440   1.411       .  A
C1439      H1450   1.076       .  S
C1440      C1441   1.409   1_554  A
C1441      C1442   1.399       .  A
C1441      H1451   1.083       .  S
C1442      H1452   1.081       .  S
C1453      C1454   1.408       .  A
C1453      C1458   1.411       .  A
C1454      C1455   1.396       .  A
C1454      H1467   1.083       .  S
C1455      C1456   1.401       .  A
C1455      H1468   1.083       .  S
C1456      C1459   1.485       .  S
C1456      C1457   1.406       .  A
C1457      C1458   1.398       .  A
C1457      H1469   1.081       .  S
C1458      H1470   1.076       .  S
C1459      H1471   1.084       .  S
C1459      C1460   1.347       .  D
C1460      H1472   1.085       .  S
C1460      C1461   1.487       .  S
C1461      C1462   1.401       .  A
C1461      C1466   1.406       .  A
C1462      C1463   1.397       .  A
C1462      H1473   1.084       .  S
C1463      C1464   1.411       .  A
C1463      H1474   1.076       .  S
C1464      C1465   1.408       .  A
C1465      C1466   1.397       .  A
C1465      H1475   1.083       .  S
C1466      H1476   1.081       .  S
C1477      C1478   1.407       .  A
C1477      C1482   1.407       .  A
C1478      C1479   1.405       .  A
C1478      H1491   1.082       .  S
C1479      C1480   1.405       .  A
C1479      H1492   1.083       .  S
C1480      C1483   1.494       .  S
C1480      C1481   1.407       .  A
C1481      C1482   1.395       .  A
C1481      H1493   1.081       .  S
C1482      H1494   1.082       .  S
C1483      H1495   1.084       .  S
C1483      C1484   1.350   1_565  D
C1484      H1496   1.085       .  S
C1484      C1485   1.491       .  S
C1485      C1486   1.403       .  A
C1485      C1490   1.411       .  A
C1486      C1487   1.393       .  A
C1486      H1497   1.084       .  S
C1487      C1488   1.404       .  A
C1487      H1498   1.083       .  S
C1488      C1489   1.405       .  A
C1489      C1490   1.407       .  A
C1489      H1499   1.083       .  S
C1490      H1500   1.081       .  S
C1501      C1502   1.410       .  A
C1501      C1506   1.411       .  A
C1502      C1503   1.398       .  A
C1502      H1515   1.083       .  S
C1503      C1504   1.401       .  A
C1503      H1516   1.083       .  S
C1504      C1507   1.491       .  S
C1504      C1505   1.407       .  A
C1505      C1506   1.403       .  A
C1505      H1517   1.082       .  S
C1506      H1518   1.078       .  S
C1507      H1519   1.085       .  S
C1507      C1508   1.349       .  D
C1508      H1520   1.086       .  S
C1508      C1509   1.492       .  S
C1509      C1510   1.402       .  A
C1509      C1514   1.408       .  A
C1510      C1511   1.398       .  A
C1510      H1521   1.083       .  S
C1511      C1512   1.410       .  A
C1511      H1522   1.083       .  S
C1512      C1513   1.411       .  A
C1513      C1514   1.403       .  A
C1513      H1523   1.077       .  S
C1514      H1524   1.082       .  S
C1525      C1526   1.403       .  A
C1525      C1530   1.405       .  A
C1526      C1527   1.394       .  A
C1526      H1539   1.083       .  S
C1527      C1528   1.403       .  A
C1527      H1540   1.084       .  S
C1528      C1531   1.491       .  S
C1528      C1529   1.411       .  A
C1529      C1530   1.407       .  A
C1529      H1541   1.081       .  S
C1530      H1542   1.083       .  S
C1531      H1543   1.085   1_565  S
C1531      C1532   1.350   1_565  D
C1532      H1544   1.084   1_545  S
C1532      C1533   1.494       .  S
C1533      C1534   1.406       .  A
C1533      C1538   1.407       .  A
C1534      C1535   1.405       .  A
C1534      H1545   1.083       .  S
C1535      C1536   1.407       .  A
C1535      H1546   1.082       .  S
C1536      C1537   1.406       .  A
C1537      C1538   1.396       .  A
C1537      H1547   1.082       .  S
C1538      H1548   1.081       .  S
C1549      C1550   1.408   1_556  A
C1549      C1554   1.411       .  A
C1550      C1551   1.396       .  A
C1550      H1563   1.083       .  S
C1551      C1552   1.402   1_554  A
C1551      H1564   1.083       .  S
C1552      C1555   1.489   1_556  S
C1552      C1553   1.407       .  A
C1553      C1554   1.401       .  A
C1553      H1565   1.081       .  S
C1554      H1566   1.077       .  S
C1555      H1567   1.085       .  S
C1555      C1556   1.349   1_554  D
C1556      H1568   1.085       .  S
C1556      C1557   1.490       .  S
C1557      C1558   1.403       .  A
C1557      C1562   1.406   1_556  A
C1558      C1559   1.400       .  A
C1558      H1569   1.083       .  S
C1559      C1560   1.409       .  A
C1559      H1570   1.083       .  S
C1560      C1561   1.411   1_556  A
C1561      C1562   1.397       .  A
C1561      H1571   1.077       .  S
C1562      H1572   1.081       .  S
C1573      C1574   1.405       .  A
C1573      C1578   1.404       .  A
C1574      C1575   1.394       .  A
C1574      H1587   1.083       .  S
C1575      C1576   1.403       .  A
C1575      H1588   1.084       .  S
C1576      C1579   1.492       .  S
C1576      C1577   1.411       .  A
C1577      C1578   1.407       .  A
C1577      H1589   1.081       .  S
C1578      H1590   1.083       .  S
C1579      H1591   1.085       .  S
C1579      C1580   1.349       .  D
C1580      H1592   1.084       .  S
C1580      C1581   1.493       .  S
C1581      C1582   1.405       .  A
C1581      C1586   1.408       .  A
C1582      C1583   1.403       .  A
C1582      H1593   1.083       .  S
C1583      C1584   1.407       .  A
C1583      H1594   1.082       .  S
C1584      C1585   1.407       .  A
C1585      C1586   1.398       .  A
C1585      H1595   1.082       .  S
C1586      H1596   1.082       .  S
C1597      C1598   1.406       .  A
C1597      C1602   1.404       .  A
C1598      C1599   1.395       .  A
C1598      H1611   1.082       .  S
C1599      C1600   1.402       .  A
C1599      H1612   1.084       .  S
C1600      C1603   1.489       .  S
C1600      C1601   1.410       .  A
C1601      C1602   1.401       .  A
C1601      H1613   1.080       .  S
C1602      H1614   1.082       .  S
C1603      H1615   1.083       .  S
C1603      C1604   1.348       .  D
C1604      H1616   1.084       .  S
C1604      C1605   1.492       .  S
C1605      C1606   1.405       .  A
C1605      C1610   1.411       .  A
C1606      C1607   1.398       .  A
C1606      H1617   1.083       .  S
C1607      C1608   1.403       .  A
C1607      H1618   1.083       .  S
C1608      C1609   1.404       .  A
C1609      C1610   1.398       .  A
C1609      H1619   1.083       .  S
C1610      H1620   1.079       .  S
C1621      C1622   1.410       .  A
C1621      C1626   1.413       .  A
C1622      C1623   1.399       .  A
C1622      H1635   1.083       .  S
C1623      C1624   1.402       .  A
C1623      H1636   1.083       .  S
C1624      C1627   1.488       .  S
C1624      C1625   1.405       .  A
C1625      C1626   1.400       .  A
C1625      H1637   1.082       .  S
C1626      H1638   1.076       .  S
C1627      H1639   1.085       .  S
C1627      C1628   1.350       .  D
C1628      H1640   1.086       .  S
C1628      C1629   1.490       .  S
C1629      C1630   1.403       .  A
C1629      C1634   1.405       .  A
C1630      C1631   1.400       .  A
C1630      H1641   1.083       .  S
C1631      C1632   1.410       .  A
C1631      H1642   1.083       .  S
C1632      C1633   1.411       .  A
C1633      C1634   1.399       .  A
C1633      H1643   1.076       .  S
C1634      H1644   1.081       .  S
C1645      C1646   1.409       .  A
C1645      C1650   1.411   1_556  A
C1646      C1647   1.398       .  A
C1646      H1659   1.083       .  S
C1647      C1648   1.402       .  A
C1647      H1660   1.083       .  S
C1648      C1651   1.491       .  S
C1648      C1649   1.407   1_556  A
C1649      C1650   1.400       .  A
C1649      H1661   1.081       .  S
C1650      H1662   1.076       .  S
C1651      H1663   1.085       .  S
C1651      C1652   1.349   1_556  D
C1652      H1664   1.084       .  S
C1652      C1653   1.490       .  S
C1653      C1654   1.402       .  A
C1653      C1658   1.406   1_554  A
C1654      C1655   1.399       .  A
C1654      H1665   1.084       .  S
C1655      C1656   1.410       .  A
C1655      H1666   1.076       .  S
C1656      C1657   1.410   1_554  A
C1657      C1658   1.399       .  A
C1657      H1667   1.083       .  S
C1658      H1668   1.081       .  S
C1669      C1670   1.405       .  A
C1669      C1674   1.405       .  A
C1670      C1671   1.396       .  A
C1670      H1683   1.083       .  S
C1671      C1672   1.403       .  A
C1671      H1684   1.083       .  S
C1672      C1675   1.489       .  S
C1672      C1673   1.409       .  A
C1673      C1674   1.402       .  A
C1673      H1685   1.081       .  S
C1674      H1686   1.080       .  S
C1675      H1687   1.085       .  S
C1675      C1676   1.348   1_565  D
C1676      H1688   1.084       .  S
C1676      C1677   1.491       .  S
C1677      C1678   1.404       .  A
C1677      C1682   1.409       .  A
C1678      C1679   1.400       .  A
C1678      H1689   1.083       .  S
C1679      C1680   1.406       .  A
C1679      H1690   1.082       .  S
C1680      C1681   1.405       .  A
C1681      C1682   1.398       .  A
C1681      H1691   1.083       .  S
C1682      H1692   1.081   1_545  S
C1693      C1694   1.409   1_554  A
C1693      C1698   1.411       .  A
C1694      C1695   1.396       .  A
C1694      H1707   1.083       .  S
C1695      C1696   1.400       .  A
C1695      H1708   1.083       .  S
C1696      C1699   1.487       .  S
C1696      C1697   1.406   1_556  A
C1697      C1698   1.403       .  A
C1697      H1709   1.082       .  S
C1698      H1710   1.078       .  S
C1699      H1711   1.086       .  S
C1699      C1700   1.347   1_556  D
C1700      H1712   1.086       .  S
C1700      C1701   1.489       .  S
C1701      C1702   1.401       .  A
C1701      C1706   1.406   1_554  A
C1702      C1703   1.399       .  A
C1702      H1713   1.083       .  S
C1703      C1704   1.410       .  A
C1703      H1714   1.083       .  S
C1704      C1705   1.412   1_554  A
C1705      C1706   1.401       .  A
C1705      H1715   1.077       .  S
C1706      H1716   1.082       .  S
C1717      C1718   1.406       .  A
C1717      C1722   1.406       .  A
C1718      C1719   1.406       .  A
C1718      H1731   1.082       .  S
C1719      C1720   1.407       .  A
C1719      H1732   1.083       .  S
C1720      C1723   1.497       .  S
C1720      C1721   1.408       .  A
C1721      C1722   1.395       .  A
C1721      H1733   1.080       .  S
C1722      H1734   1.082       .  S
C1723      H1735   1.084       .  S
C1723      C1724   1.351       .  D
C1724      H1736   1.084       .  S
C1724      C1725   1.492       .  S
C1725      C1726   1.404       .  A
C1725      C1730   1.410       .  A
C1726      C1727   1.395       .  A
C1726      H1737   1.084       .  S
C1727      C1728   1.405       .  A
C1727      H1738   1.083       .  S
C1728      C1729   1.407       .  A
C1729      C1730   1.407       .  A
C1729      H1739   1.083       .  S
C1730      H1740   1.081       .  S
C1741      C1742   1.408       .  A
C1741      C1746   1.412       .  A
C1742      C1743   1.395       .  A
C1742      H1755   1.083       .  S
C1743      C1744   1.401       .  A
C1743      H1756   1.083       .  S
C1744      C1747   1.488       .  S
C1744      C1745   1.407       .  A
C1745      C1746   1.403       .  A
C1745      H1757   1.081       .  S
C1746      H1758   1.077       .  S
C1747      H1759   1.086       .  S
C1747      C1748   1.348       .  D
C1748      H1760   1.085       .  S
C1748      C1749   1.489       .  S
C1749      C1750   1.401       .  A
C1749      C1754   1.407       .  A
C1750      C1751   1.397       .  A
C1750      H1761   1.083       .  S
C1751      C1752   1.410       .  A
C1751      H1762   1.083       .  S
C1752      C1753   1.409       .  A
C1753      C1754   1.400       .  A
C1753      H1763   1.078       .  S
C1754      H1764   1.082       .  S
C1765      C1766   1.402       .  A
C1765      C1770   1.407       .  A
C1766      C1767   1.396       .  A
C1766      H1779   1.076       .  S
C1767      C1768   1.402       .  A
C1767      H1780   1.083       .  S
C1768      C1771   1.484       .  S
C1768      C1769   1.407       .  A
C1769      C1770   1.398       .  A
C1769      H1781   1.081       .  S
C1770      H1782   1.083       .  S
C1771      H1783   1.084       .  S
C1771      C1772   1.347       .  D
C1772      H1784   1.085       .  S
C1772      C1773   1.487       .  S
C1773      C1774   1.403       .  A
C1773      C1778   1.409       .  A
C1774      C1775   1.397       .  A
C1774      H1785   1.084       .  S
C1775      C1776   1.407       .  A
C1775      H1786   1.083       .  S
C1776      C1777   1.403       .  A
C1777      C1778   1.398       .  A
C1777      H1787   1.082       .  S
C1778      H1788   1.081       .  S
C1789      C1790   1.407       .  A
C1789      C1794   1.410       .  A
C1790      C1791   1.398       .  A
C1790      H1803   1.075       .  S
C1791      C1792   1.401       .  A
C1791      H1804   1.084       .  S
C1792      C1795   1.490       .  S
C1792      C1793   1.408       .  A
C1793      C1794   1.400       .  A
C1793      H1805   1.081       .  S
C1794      H1806   1.081       .  S
C1795      H1807   1.083       .  S
C1795      C1796   1.348   1_545  D
C1796      H1808   1.085       .  S
C1796      C1797   1.493       .  S
C1797      C1798   1.403       .  A
C1797      C1802   1.411       .  A
C1798      C1799   1.396       .  A
C1798      H1809   1.083       .  S
C1799      C1800   1.406       .  A
C1799      H1810   1.082       .  S
C1800      C1801   1.404       .  A
C1801      C1802   1.401       .  A
C1801      H1811   1.080       .  S
C1802      H1812   1.080       .  S
C1813      C1814   1.402       .  A
C1813      C1818   1.406       .  A
C1814      C1815   1.396       .  A
C1814      H1827   1.077       .  S
C1815      C1816   1.402       .  A
C1815      H1828   1.083       .  S
C1816      C1819   1.486       .  S
C1816      C1817   1.408       .  A
C1817      C1818   1.400       .  A
C1817      H1829   1.082       .  S
C1818      H1830   1.083       .  S
C1819      H1831   1.084       .  S
C1819      C1820   1.347       .  D
C1820      H1832   1.085       .  S
C1820      C1821   1.488       .  S
C1821      C1822   1.402       .  A
C1821      C1826   1.409       .  A
C1822      C1823   1.397       .  A
C1822      H1833   1.083   1_545  S
C1823      C1824   1.407       .  A
C1823      H1834   1.082   1_545  S
C1824      C1825   1.403       .  A
C1825      C1826   1.399       .  A
C1825      H1835   1.077       .  S
C1826      H1836   1.080       .  S
C1837      C1838   1.409       .  A
C1837      C1842   1.410       .  A
C1838      C1839   1.395       .  A
C1838      H1851   1.083       .  S
C1839      C1840   1.400       .  A
C1839      H1852   1.084       .  S
C1840      C1843   1.487       .  S
C1840      C1841   1.407       .  A
C1841      C1842   1.402       .  A
C1841      H1853   1.082       .  S
C1842      H1854   1.078       .  S
C1843      H1855   1.086       .  S
C1843      C1844   1.347       .  D
C1844      H1856   1.085       .  S
C1844      C1845   1.487       .  S
C1845      C1846   1.400       .  A
C1845      C1850   1.407       .  A
C1846      C1847   1.396       .  A
C1846      H1857   1.083       .  S
C1847      C1848   1.410       .  A
C1847      H1858   1.083       .  S
C1848      C1849   1.411       .  A
C1849      C1850   1.400       .  A
C1849      H1859   1.077       .  S
C1850      H1860   1.082       .  S
C1861      C1862   1.407       .  A
C1861      C1866   1.405       .  A
C1862      C1863   1.395       .  A
C1862      H1875   1.083   1_545  S
C1863      C1864   1.401       .  A
C1863      H1876   1.084       .  S
C1864      C1867   1.487       .  S
C1864      C1865   1.409       .  A
C1865      C1866   1.403       .  A
C1865      H1877   1.081       .  S
C1866      H1878   1.080       .  S
C1867      H1879   1.085       .  S
C1867      C1868   1.348       .  D
C1868      H1880   1.085       .  S
C1868      C1869   1.490       .  S
C1869      C1870   1.403       .  A
C1869      C1874   1.408       .  A
C1870      C1871   1.400       .  A
C1870      H1881   1.083       .  S
C1871      C1872   1.405       .  A
C1871      H1882   1.077       .  S
C1872      C1873   1.407       .  A
C1873      C1874   1.398       .  A
C1873      H1883   1.082   1_545  S
C1874      H1884   1.081   1_545  S
C1885      C1886   1.410       .  A
C1885      C1890   1.411       .  A
C1886      C1887   1.396       .  A
C1886      H1899   1.083       .  S
C1887      C1888   1.401       .  A
C1887      H1900   1.083       .  S
C1888      C1891   1.490       .  S
C1888      C1889   1.408       .  A
C1889      C1890   1.404       .  A
C1889      H1901   1.082       .  S
C1890      H1902   1.078       .  S
C1891      H1903   1.086       .  S
C1891      C1892   1.349       .  D
C1892      H1904   1.086       .  S
C1892      C1893   1.491       .  S
C1893      C1894   1.402       .  A
C1893      C1898   1.406       .  A
C1894      C1895   1.399       .  A
C1894      H1905   1.083       .  S
C1895      C1896   1.410       .  A
C1895      H1906   1.083       .  S
C1896      C1897   1.412       .  A
C1897      C1898   1.402       .  A
C1897      H1907   1.077       .  S
C1898      H1908   1.082       .  S
C1909      C1910   1.406       .  A
C1909      C1914   1.409       .  A
C1910      C1911   1.400       .  A
C1910      H1923   1.077       .  S
C1911      C1912   1.403       .  A
C1911      H1924   1.083       .  S
C1912      C1915   1.495       .  S
C1912      C1913   1.409       .  A
C1913      C1914   1.402       .  A
C1913      H1925   1.080   1_545  S
C1914      H1926   1.082   1_545  S
C1915      H1927   1.083       .  S
C1915      C1916   1.350       .  D
C1916      H1928   1.084       .  S
C1916      C1917   1.496       .  S
C1917      C1918   1.404       .  A
C1917      C1922   1.412       .  A
C1918      C1919   1.397       .  A
C1918      H1929   1.083       .  S
C1919      C1920   1.405       .  A
C1919      H1930   1.083   1_545  S
C1920      C1921   1.404       .  A
C1921      C1922   1.405       .  A
C1921      H1931   1.080       .  S
C1922      H1932   1.080       .  S
C1933      C1934   1.407       .  A
C1933      C1938   1.405       .  A
C1934      C1935   1.396       .  A
C1934      H1947   1.082       .  S
C1935      C1936   1.402       .  A
C1935      H1948   1.083       .  S
C1936      C1939   1.492       .  S
C1936      C1937   1.410       .  A
C1937      C1938   1.403       .  A
C1937      H1949   1.080       .  S
C1938      H1950   1.078       .  S
C1939      H1951   1.085       .  S
C1939      C1940   1.348       .  D
C1940      H1952   1.084       .  S
C1940      C1941   1.490       .  S
C1941      C1942   1.401       .  A
C1941      C1946   1.407       .  A
C1942      C1943   1.398       .  A
C1942      H1953   1.083       .  S
C1943      C1944   1.408       .  A
C1943      H1954   1.076       .  S
C1944      C1945   1.410       .  A
C1945      C1946   1.400       .  A
C1945      H1955   1.081   1_545  S
C1946      H1956   1.081       .  S
C1957      C1958   1.406       .  A
C1957      C1962   1.404       .  A
C1958      C1959   1.396       .  A
C1958      H1971   1.083       .  S
C1959      C1960   1.403       .  A
C1959      H1972   1.084       .  S
C1960      C1963   1.491       .  S
C1960      C1961   1.410       .  A
C1961      C1962   1.403       .  A
C1961      H1973   1.081       .  S
C1962      H1974   1.080       .  S
C1963      H1975   1.084       .  S
C1963      C1964   1.350       .  D
C1964      H1976   1.084       .  S
C1964      C1965   1.492       .  S
C1965      C1966   1.404       .  A
C1965      C1970   1.408       .  A
C1966      C1967   1.401       .  A
C1966      H1977   1.083       .  S
C1967      C1968   1.405       .  A
C1967      H1978   1.077       .  S
C1968      C1969   1.408       .  A
C1969      C1970   1.397       .  A
C1969      H1979   1.082       .  S
C1970      H1980   1.081       .  S
C1981      C1982   1.409       .  A
C1981      C1986   1.411       .  A
C1982      C1983   1.397       .  A
C1982      H1995   1.083       .  S
C1983      C1984   1.401       .  A
C1983      H1996   1.083       .  S
C1984      C1987   1.489       .  S
C1984      C1985   1.407       .  A
C1985      C1986   1.401       .  A
C1985      H1997   1.082       .  S
C1986      H1998   1.077       .  S
C1987      H1999   1.086       .  S
C1987      C1988   1.348       .  D
C1988      H2000   1.085       .  S
C1988      C1989   1.488       .  S
C1989      C1990   1.402       .  A
C1989      C1994   1.405       .  A
C1990      C1991   1.400       .  A
C1990      H2001   1.083       .  S
C1991      C1992   1.410       .  A
C1991      H2002   1.083       .  S
C1992      C1993   1.412       .  A
C1993      C1994   1.398       .  A
C1993      H2003   1.077       .  S
C1994      H2004   1.082       .  S
C2005      C2006   1.406       .  A
C2005      C2010   1.404       .  A
C2006      C2007   1.396       .  A
C2006      H2019   1.083       .  S
C2007      C2008   1.403       .  A
C2007      H2020   1.083       .  S
C2008      C2011   1.493       .  S
C2008      C2009   1.411       .  A
C2009      C2010   1.403       .  A
C2009      H2021   1.080       .  S
C2010      H2022   1.080       .  S
C2011      H2023   1.085       .  S
C2011      C2012   1.349       .  D
C2012      H2024   1.083       .  S
C2012      C2013   1.491       .  S
C2013      C2014   1.402       .  A
C2013      C2018   1.408       .  A
C2014      C2015   1.399       .  A
C2014      H2025   1.084       .  S
C2015      C2016   1.406       .  A
C2015      H2026   1.074       .  S
C2016      C2017   1.410       .  A
C2017      C2018   1.400       .  A
C2017      H2027   1.081       .  S
C2018      H2028   1.081       .  S
C2029      C2030   1.409       .  A
C2029      C2034   1.412       .  A
C2030      C2031   1.397       .  A
C2030      H2043   1.083       .  S
C2031      C2032   1.401       .  A
C2031      H2044   1.083       .  S
C2032      C2035   1.487       .  S
C2032      C2033   1.406       .  A
C2033      C2034   1.400       .  A
C2033      H2045   1.082       .  S
C2034      H2046   1.077       .  S
C2035      H2047   1.085       .  S
C2035      C2036   1.348       .  D
C2036      H2048   1.086       .  S
C2036      C2037   1.488       .  S
C2037      C2038   1.401       .  A
C2037      C2042   1.406       .  A
C2038      C2039   1.397       .  A
C2038      H2049   1.083       .  S
C2039      C2040   1.410       .  A
C2039      H2050   1.083       .  S
C2040      C2041   1.411       .  A
C2041      C2042   1.399       .  A
C2041      H2051   1.077       .  S
C2042      H2052   1.082       .  S
C2053      C2054   1.404       .  A
C2053      C2058   1.409       .  A
C2054      C2055   1.397       .  A
C2054      H2067   1.074       .  S
C2055      C2056   1.402       .  A
C2055      H2068   1.084       .  S
C2056      C2059   1.488       .  S
C2056      C2057   1.408       .  A
C2057      C2058   1.401       .  A
C2057      H2069   1.081       .  S
C2058      H2070   1.082       .  S
C2059      H2071   1.084       .  S
C2059      C2060   1.348       .  D
C2060      H2072   1.085       .  S
C2060      C2061   1.491       .  S
C2061      C2062   1.403       .  A
C2061      C2066   1.409       .  A
C2062      C2063   1.398       .  A
C2062      H2073   1.084       .  S
C2063      C2064   1.408       .  A
C2063      H2074   1.082       .  S
C2064      C2065   1.404       .  A
C2065      C2066   1.399       .  A
C2065      H2075   1.080       .  S
C2066      H2076   1.080       .  S
C2077      C2078   1.405       .  A
C2077      C2082   1.408       .  A
C2078      C2079   1.400       .  A
C2078      H2091   1.079       .  S
C2079      C2080   1.405       .  A
C2079      H2092   1.083       .  S
C2080      C2083   1.492       .  S
C2080      C2081   1.407       .  A
C2081      C2082   1.399       .  A
C2081      H2093   1.081       .  S
C2082      H2094   1.082       .  S
C2083      H2095   1.084       .  S
C2083      C2084   1.351       .  D
C2084      H2096   1.084       .  S
C2084      C2085   1.492       .  S
C2085      C2086   1.404       .  A
C2085      C2090   1.408       .  A
C2086      C2087   1.399       .  A
C2086      H2097   1.083       .  S
C2087      C2088   1.408       .  A
C2087      H2098   1.082       .  S
C2088      C2089   1.405       .  A
C2089      C2090   1.400       .  A
C2089      H2099   1.077       .  S
C2090      H2100   1.081       .  S
C2101      C2102   1.410       .  A
C2101      C2106   1.410       .  A
C2102      C2103   1.398       .  A
C2102      H2115   1.076       .  S
C2103      C2104   1.402       .  A
C2103      H2116   1.084       .  S
C2104      C2107   1.490       .  S
C2104      C2105   1.407       .  A
C2105      C2106   1.400       .  A
C2105      H2117   1.081       .  S
C2106      H2118   1.083       .  S
C2107      H2119   1.085       .  S
C2107      C2108   1.349       .  D
C2108      H2120   1.084       .  S
C2108      C2109   1.489       .  S
C2109      C2110   1.402       .  A
C2109      C2114   1.407       .  A
C2110      C2111   1.398       .  A
C2110      H2121   1.083       .  S
C2111      C2112   1.409       .  A
C2111      H2122   1.083       .  S
C2112      C2113   1.410       .  A
C2113      C2114   1.399       .  A
C2113      H2123   1.077       .  S
C2114      H2124   1.081       .  S
C2125      C2126   1.405       .  A
C2125      C2130   1.404       .  A
C2126      C2127   1.403       .  A
C2126      H2139   1.083   1_455  S
C2127      C2128   1.405       .  A
C2127      H2140   1.083   1_455  S
C2128      C2131   1.487       .  S
C2128      C2129   1.407       .  A
C2129      C2130   1.393       .  A
C2129      H2141   1.082       .  S
C2130      H2142   1.083       .  S
C2131      H2143   1.085       .  S
C2131      C2132   1.347       .  D
C2132      H2144   1.086       .  S
C2132      C2133   1.483       .  S
C2133      C2134   1.402       .  A
C2133      C2138   1.408       .  A
C2134      C2135   1.392       .  A
C2134      H2145   1.084       .  S
C2135      C2136   1.403       .  A
C2135      H2146   1.083       .  S
C2136      C2137   1.405       .  A
C2137      C2138   1.403       .  A
C2137      H2147   1.083       .  S
C2138      H2148   1.082       .  S
C2149      C2150   1.411       .  A
C2149      C2154   1.409       .  A
C2150      C2151   1.397       .  A
C2150      H2163   1.076       .  S
C2151      C2152   1.401       .  A
C2151      H2164   1.084       .  S
C2152      C2155   1.490       .  S
C2152      C2153   1.407       .  A
C2153      C2154   1.400       .  A
C2153      H2165   1.081       .  S
C2154      H2166   1.083       .  S
C2155      H2167   1.084       .  S
C2155      C2156   1.348       .  D
C2156      H2168   1.085       .  S
C2156      C2157   1.491       .  S
C2157      C2158   1.401       .  A
C2157      C2162   1.409       .  A
C2158      C2159   1.396       .  A
C2158      H2169   1.084       .  S
C2159      C2160   1.409       .  A
C2159      H2170   1.083       .  S
C2160      C2161   1.410       .  A
C2161      C2162   1.402       .  A
C2161      H2171   1.077       .  S
C2162      H2172   1.081       .  S
C2173      C2174   1.405       .  A
C2173      C2178   1.406       .  A
C2174      C2175   1.393       .  A
C2174      H2187   1.083       .  S
C2175      C2176   1.401       .  A
C2175      H2188   1.084       .  S
C2176      C2179   1.488       .  S
C2176      C2177   1.410       .  A
C2177      C2178   1.407       .  A
C2177      H2189   1.082       .  S
C2178      H2190   1.083       .  S
C2179      H2191   1.085       .  S
C2179      C2180   1.349       .  D
C2180      H2192   1.085       .  S
C2180      C2181   1.494       .  S
C2181      C2182   1.405       .  A
C2181      C2186   1.409       .  A
C2182      C2183   1.403       .  A
C2182      H2193   1.083   1_455  S
C2183      C2184   1.406       .  A
C2183      H2194   1.082   1_455  S
C2184      C2185   1.405       .  A
C2185      C2186   1.397       .  A
C2185      H2195   1.082       .  S
C2186      H2196   1.081       .  S
C2197      C2198   1.409       .  A
C2197      C2202   1.411       .  A
C2198      C2199   1.398       .  A
C2198      H2211   1.083       .  S
C2199      C2200   1.401       .  A
C2199      H2212   1.083       .  S
C2200      C2203   1.487       .  S
C2200      C2201   1.405       .  A
C2201      C2202   1.398       .  A
C2201      H2213   1.082       .  S
C2202      H2214   1.076       .  S
C2203      H2215   1.085       .  S
C2203      C2204   1.348       .  D
C2204      H2216   1.085       .  S
C2204      C2205   1.487       .  S
C2205      C2206   1.402       .  A
C2205      C2210   1.406       .  A
C2206      C2207   1.397       .  A
C2206      H2217   1.083       .  S
C2207      C2208   1.408       .  A
C2207      H2218   1.083       .  S
C2208      C2209   1.412       .  A
C2209      C2210   1.399       .  A
C2209      H2219   1.076       .  S
C2210      H2220   1.081       .  S
C2221      C2222   1.403       .  A
C2221      C2226   1.402       .  A
C2222      C2223   1.397       .  A
C2222      H2235   1.083       .  S
C2223      C2224   1.405       .  A
C2223      H2236   1.083       .  S
C2224      C2227   1.491       .  S
C2224      C2225   1.411       .  A
C2225      C2226   1.399       .  A
C2225      H2237   1.080       .  S
C2226      H2238   1.083       .  S
C2227      H2239   1.085       .  S
C2227      C2228   1.349       .  D
C2228      H2240   1.083       .  S
C2228      C2229   1.488       .  S
C2229      C2230   1.405       .  A
C2229      C2234   1.408       .  A
C2230      C2231   1.399       .  A
C2230      H2241   1.083       .  S
C2231      C2232   1.403       .  A
C2231      H2242   1.083       .  S
C2232      C2233   1.406       .  A
C2233      C2234   1.397       .  A
C2233      H2243   1.083       .  S
C2234      H2244   1.081       .  S
C2245      C2246   1.404       .  A
C2245      C2250   1.405       .  A
C2246      C2247   1.395       .  A
C2246      H2259   1.083       .  S
C2247      C2248   1.404       .  A
C2247      H2260   1.084       .  S
C2248      C2251   1.490       .  S
C2248      C2249   1.410       .  A
C2249      C2250   1.404       .  A
C2249      H2261   1.080       .  S
C2250      H2262   1.083       .  S
C2251      H2263   1.086       .  S
C2251      C2252   1.349       .  D
C2252      H2264   1.084       .  S
C2252      C2253   1.490       .  S
C2253      C2254   1.405       .  A
C2253      C2258   1.407       .  A
C2254      C2255   1.403       .  A
C2254      H2265   1.083   1_455  S
C2255      C2256   1.405       .  A
C2255      H2266   1.083   1_455  S
C2256      C2257   1.406       .  A
C2257      C2258   1.396       .  A
C2257      H2267   1.082       .  S
C2258      H2268   1.082       .  S
C2269      C2270   1.411       .  A
C2269      C2274   1.409       .  A
C2270      C2271   1.398       .  A
C2270      H2283   1.076       .  S
C2271      C2272   1.401       .  A
C2271      H2284   1.084       .  S
C2272      C2275   1.488       .  S
C2272      C2273   1.406       .  A
C2273      C2274   1.397       .  A
C2273      H2285   1.081       .  S
C2274      H2286   1.083       .  S
C2275      H2287   1.084       .  S
C2275      C2276   1.347       .  D
C2276      H2288   1.084       .  S
C2276      C2277   1.487       .  S
C2277      C2278   1.401       .  A
C2277      C2282   1.408       .  A
C2278      C2279   1.395       .  A
C2278      H2289   1.083       .  S
C2279      C2280   1.409       .  A
C2279      H2290   1.083       .  S
C2280      C2281   1.410       .  A
C2281      C2282   1.401       .  A
C2281      H2291   1.077       .  S
C2282      H2292   1.081       .  S
C2293      C2294   1.409       .  A
C2293      C2298   1.411       .  A
C2294      C2295   1.396       .  A
C2294      H2307   1.083       .  S
C2295      C2296   1.400       .  A
C2295      H2308   1.083       .  S
C2296      C2299   1.484       .  S
C2296      C2297   1.405       .  A
C2297      C2298   1.398       .  A
C2297      H2309   1.082       .  S
C2298      H2310   1.076       .  S
C2299      H2311   1.086       .  S
C2299      C2300   1.346       .  D
C2300      H2312   1.086       .  S
C2300      C2301   1.483       .  S
C2301      C2302   1.400       .  A
C2301      C2306   1.405       .  A
C2302      C2303   1.396       .  A
C2302      H2313   1.083       .  S
C2303      C2304   1.409       .  A
C2303      H2314   1.083       .  S
C2304      C2305   1.411       .  A
C2305      C2306   1.398       .  A
C2305      H2315   1.077       .  S
C2306      H2316   1.082       .  S
C2317      C2318   1.402       .  A
C2317      C2322   1.406       .  A
C2318      C2319   1.400       .  A
C2318      H2331   1.077       .  S
C2319      C2320   1.405       .  A
C2319      H2332   1.083       .  S
C2320      C2323   1.492       .  S
C2320      C2321   1.409       .  A
C2321      C2322   1.398       .  A
C2321      H2333   1.080       .  S
C2322      H2334   1.083       .  S
C2323      H2335   1.085       .  S
C2323      C2324   1.349       .  D
C2324      H2336   1.084       .  S
C2324      C2325   1.489       .  S
C2325      C2326   1.403       .  A
C2325      C2330   1.409       .  A
C2326      C2327   1.397       .  A
C2326      H2337   1.083       .  S
C2327      C2328   1.406       .  A
C2327      H2338   1.083       .  S
C2328      C2329   1.403       .  A
C2329      C2330   1.401       .  A
C2329      H2339   1.080       .  S
C2330      H2340   1.081       .  S
C2341      C2342   1.409       .  A
C2341      C2346   1.411       .  A
C2342      C2343   1.397       .  A
C2342      H2355   1.083       .  S
C2343      C2344   1.401       .  A
C2343      H2356   1.083       .  S
C2344      C2347   1.487       .  S
C2344      C2345   1.406       .  A
C2345      C2346   1.399       .  A
C2345      H2357   1.082       .  S
C2346      H2358   1.077       .  S
C2347      H2359   1.086       .  S
C2347      C2348   1.346       .  D
C2348      H2360   1.086       .  S
C2348      C2349   1.486       .  S
C2349      C2350   1.399       .  A
C2349      C2354   1.407       .  A
C2350      C2351   1.394       .  A
C2350      H2361   1.084       .  S
C2351      C2352   1.410       .  A
C2351      H2362   1.083       .  S
C2352      C2353   1.411       .  A
C2353      C2354   1.403       .  A
C2353      H2363   1.078       .  S
C2354      H2364   1.082       .  S
C2365      C2366   1.404       .  A
C2365      C2370   1.401       .  A
C2366      C2367   1.397       .  A
C2366      H2379   1.083       .  S
C2367      C2368   1.405       .  A
C2367      H2380   1.083       .  S
C2368      C2371   1.494       .  S
C2368      C2369   1.412       .  A
C2369      C2370   1.400       .  A
C2369      H2381   1.079       .  S
C2370      H2382   1.080       .  S
C2371      H2383   1.084       .  S
C2371      C2372   1.349       .  D
C2372      H2384   1.082       .  S
C2372      C2373   1.490       .  S
C2373      C2374   1.402       .  A
C2373      C2378   1.407       .  A
C2374      C2375   1.398       .  A
C2374      H2385   1.083       .  S
C2375      C2376   1.406       .  A
C2375      H2386   1.075       .  S
C2376      C2377   1.411       .  A
C2377      C2378   1.399       .  A
C2377      H2387   1.081       .  S
C2378      H2388   1.081       .  S
C2389      C2390   1.408       .  A
C2389      C2394   1.412       .  A
C2390      C2391   1.397       .  A
C2390      H2403   1.083       .  S
C2391      C2392   1.402       .  A
C2391      H2404   1.083       .  S
C2392      C2395   1.489       .  S
C2392      C2393   1.406       .  A
C2393      C2394   1.401       .  A
C2393      H2405   1.082       .  S
C2394      H2406   1.077       .  S
C2395      H2407   1.085       .  S
C2395      C2396   1.349       .  D
C2396      H2408   1.085       .  S
C2396      C2397   1.489       .  S
C2397      C2398   1.402       .  A
C2397      C2402   1.406       .  A
C2398      C2399   1.398       .  A
C2398      H2409   1.083       .  S
C2399      C2400   1.409       .  A
C2399      H2410   1.083       .  S
C2400      C2401   1.411       .  A
C2401      C2402   1.400       .  A
C2401      H2411   1.077       .  S
C2402      H2412   1.082       .  S
C2413      C2414   1.404       .  A
C2413      C2418   1.407       .  A
C2414      C2415   1.398       .  A
C2414      H2427   1.076       .  S
C2415      C2416   1.403       .  A
C2415      H2428   1.084       .  S
C2416      C2419   1.489       .  S
C2416      C2417   1.408       .  A
C2417      C2418   1.399       .  A
C2417      H2429   1.081       .  S
C2418      H2430   1.082       .  S
C2419      H2431   1.084       .  S
C2419      C2420   1.349       .  D
C2420      H2432   1.084       .  S
C2420      C2421   1.490       .  S
C2421      C2422   1.403       .  A
C2421      C2426   1.409       .  A
C2422      C2423   1.397       .  A
C2422      H2433   1.083       .  S
C2423      C2424   1.406       .  A
C2423      H2434   1.082       .  S
C2424      C2425   1.404       .  A
C2425      C2426   1.400       .  A
C2425      H2435   1.077       .  S
C2426      H2436   1.081       .  S
C2437      C2438   1.406       .  A
C2437      C2442   1.409       .  A
C2438      C2439   1.400       .  A
C2438      H2451   1.076       .  S
C2439      C2440   1.403       .  A
C2439      H2452   1.083       .  S
C2440      C2443   1.491       .  S
C2440      C2441   1.407       .  A
C2441      C2442   1.398       .  A
C2441      H2453   1.080       .  S
C2442      H2454   1.081       .  S
C2443      H2455   1.084       .  S
C2443      C2444   1.349       .  D
C2444      H2456   1.084       .  S
C2444      C2445   1.490       .  S
C2445      C2446   1.402       .  A
C2445      C2450   1.408       .  A
C2446      C2447   1.397       .  A
C2446      H2457   1.083       .  S
C2447      C2448   1.409       .  A
C2447      H2458   1.082       .  S
C2448      C2449   1.406       .  A
C2449      C2450   1.401       .  A
C2449      H2459   1.077       .  S
C2450      H2460   1.081       .  S
