geometry optimzed in LAMMPS
_audit_creation_date              2020-12-01 
_audit_creation_method            'lammps2cif' 
_symmetry_space_group_name_H-M    'P1' 
_symmetry_Int_Tables_number       1 
_symmetry_cell_setting            triclinic 
loop_ 
_symmetry_equiv_pos_as_xyz 
  x,y,z 
_cell_length_a                    31.40430302 
_cell_length_b                    30.295777519052663 
_cell_length_c                    33.804028475623554 
_cell_angle_alpha                 90.69491728739132 
_cell_angle_beta                  91.37286574437309 
_cell_angle_gamma                 90.65378720813304 
loop_ 
_atom_site_label 
_atom_site_type_symbol 
_atom_site_fract_x 
_atom_site_fract_y 
_atom_site_fract_z 
_atom_site_charge 
Zr1        Zr  0.74897284  0.76784615  0.67240931     2.17500
O2          O  0.72403770  0.74925226  0.60531820    -0.50000
O3          O  0.79205550  0.83007707  0.65191453    -0.73200
O4          O  0.68669872  0.81255968  0.65063986    -0.80000
O5          O  0.82634620  0.67112807  0.66587030    -0.81800
O6          O  0.65386922  0.83602973  0.70587985    -0.77400
O7          O  0.79265276  0.72250882  0.62815009    -0.89000
O8          O  0.83634123  0.85129955  0.70310209    -0.75000
O9          O  0.74924441  0.82221083  0.72419630    -0.84500
O10         O  0.81453165  0.76051543  0.70930611    -0.84200
O11         O  0.68843892  0.74972343  0.71143922    -0.70900
O12         O  0.75025828  0.69402602  0.69785678    -0.83100
Zr13       Zr  0.75454742  0.72650344  0.82857443     2.26400
Zr14       Zr  0.68920826  0.80432186  0.76329685     2.06300
Zr15       Zr  0.81510333  0.68776463  0.73577467     2.10000
Zr16       Zr  0.81409544  0.81400378  0.76146892     1.78800
O17         O  0.81520423  0.60767204  0.72823439    -0.91900
O18         O  0.80623244  0.89253085  0.77549932    -0.39700
O19         O  0.81452209  0.74179742  0.78784544    -0.76300
O20         O  0.75409817  0.80027065  0.80220194    -0.95000
O21         O  0.68963277  0.73185470  0.79076077    -0.88300
O22         O  0.75620922  0.67102815  0.77710915    -0.91100
C23         C  0.82271349  0.85336790  0.66724536     1.02600
C24         C  0.81659806  0.68842224  0.63231069     1.15500
C25         C  0.65667355  0.83365110  0.66810886     1.06300
O26         O  0.68842982  0.88393286  0.77378555    -0.93300
O27         O  0.66894315  0.81853389  0.83057641    -0.89000
O28         O  0.71231405  0.77806381  0.87061645    -0.82200
C29         C  0.68249397  0.80677956  0.86484722     1.13000
O30         O  0.65427447  0.64823890  0.68060379    -0.95300
Zr31       Zr  0.69178117  0.67781866  0.73916540     1.88900
O32         O  0.71170796  0.66299247  0.85006198    -0.71900
O33         O  0.61260650  0.79381982  0.76928034    -0.51200
O34         O  0.61458631  0.68437662  0.74114027    -0.95900
O35         O  0.70707165  0.60080265  0.72398241    -0.53100
O36         O  0.67192565  0.63966445  0.79716751    -0.72400
C37         C  0.68323050  0.63749507  0.83350928     0.99900
O38         O  0.77921788  0.72594120  0.89753183    -0.61300
O39         O  0.89189143  0.69256270  0.72704938    -0.56100
O40         O  0.82522415  0.69689106  0.84874643    -0.92700
O41         O  0.85547212  0.66601657  0.79453822    -0.91200
O42         O  0.89093997  0.80374382  0.76117621    -0.91500
O43         O  0.84983109  0.83316583  0.82423734    -0.90300
C44         C  0.85493263  0.67482342  0.83181590     1.18700
H45         H  0.83866480  0.76489293  0.69248134     0.34700
H46         H  0.75477538  0.82241581  0.82307804     0.45500
H47         H  0.75938008  0.64172232  0.78812856     0.39100
H48         H  0.66234619  0.75089125  0.69577785     0.35600
H49         H  0.83570588  0.90454814  0.77624567     0.27300
H50         H  0.60061235  0.82382212  0.76736732     0.33300
H51         H  0.60833922  0.68993694  0.76932414     0.39200
H52         H  0.90278390  0.83234830  0.75245806     0.33600
H53         H  0.89866521  0.66716004  0.70970571     0.32500
H54         H  0.82243884  0.59634983  0.75486781     0.34200
H55         H  0.71813189  0.58816075  0.74901650     0.33200
H56         H  0.85488651  0.80449267  0.83723718     0.37200
H57         H  0.78417701  0.75729692  0.90509191     0.29900
H58         H  0.72482343  0.77728585  0.59057022     0.34100
H59         H  0.64527583  0.67449053  0.66552728     0.37000
H60         H  0.89661732  0.71881018  0.71050496     0.29600
H61         H  0.75422945  0.71652327  0.91275677     0.42500
H62         H  0.71840530  0.89354564  0.77102214     0.32500
H63         H  0.79328948  0.90475040  0.75104428     0.40100
H64         H  0.73201111  0.60194109  0.70665443     0.32000
H65         H  0.60312324  0.77865633  0.74444279     0.32100
H66         H  0.69341639  0.74177447  0.60749783     0.32300
C67         C  0.90724657  0.39846034  0.50332111    -0.01200
C68         C  0.09958882  0.40272613  0.50504732    -0.01200
C69         C  0.89898925  0.59889901  0.49680500    -0.01200
C70         C  0.08932800  0.60128421  0.49632762    -0.01200
C71         C  0.40180579  0.50670687  0.92733889    -0.01200
C72         C  0.40575535  0.49915476  0.10205723    -0.01200
C73         C  0.59281389  0.49724688  0.91941266    -0.01200
C74         C  0.59202813  0.49988122  0.09735445    -0.01200
C75         C  0.49811927  0.89836725  0.40188688    -0.01200
C76         C  0.50397706  0.09651638  0.41028117    -0.01200
C77         C  0.50282671  0.89771558  0.57889233    -0.01200
C78         C  0.49911718  0.09676888  0.58791174    -0.01200
Zr79       Zr  0.25651124  0.23203876  0.67478385     2.17500
O80         O  0.28079330  0.25454156  0.60999031    -0.50000
O81         O  0.21782514  0.16816182  0.64845157    -0.73200
O82         O  0.32145592  0.19231849  0.65477596    -0.80000
O83         O  0.17400156  0.32314131  0.67023276    -0.81800
O84         O  0.35816321  0.17474065  0.71087314    -0.77400
O85         O  0.20958123  0.27523656  0.63091011    -0.89000
O86         O  0.17789532  0.14047225  0.69787917    -0.75000
O87         O  0.26206034  0.17702178  0.72448037    -0.84500
O88         O  0.19070184  0.23111813  0.70911773    -0.84200
O89         O  0.31526905  0.25561486  0.71683059    -0.70900
O90         O  0.24819731  0.30417851  0.70366275    -0.83100
Zr91       Zr  0.24777252  0.27099124  0.83242526     2.26400
Zr92       Zr  0.31965227  0.20092478  0.76726222     2.06300
Zr93       Zr  0.18334338  0.30232838  0.73882033     2.10000
Zr94       Zr  0.19711542  0.17724798  0.75937429     1.78800
O95         O  0.16614671  0.37983224  0.73007307    -0.91900
O96         O  0.21962788  0.10178608  0.77161704    -0.39700
O97         O  0.18878768  0.24824796  0.78971292    -0.76300
O98         O  0.25463019  0.19835635  0.80336716    -0.95000
O99         O  0.31264952  0.27209132  0.79712732    -0.88300
O100        O  0.24074722  0.32582755  0.78220520    -0.91100
C101        C  0.18961380  0.14179068  0.66191169     1.02600
C102        C  0.18436760  0.30798232  0.63625080     1.15500
C103        C  0.35372543  0.17508848  0.67310079     1.06300
O104        O  0.33035138  0.12171683  0.77233530    -0.93300
O105        O  0.33742871  0.18462409  0.83523055    -0.89000
O106        O  0.29519469  0.22522178  0.87511996    -0.82200
C107        C  0.32455630  0.19628536  0.86945559     1.13000
O108        O  0.32546244  0.36720429  0.68891290    -0.95300
Zr109      Zr  0.30549141  0.32600453  0.74713972     1.88900
O110        O  0.28957865  0.33463263  0.85777752    -0.71900
O111        O  0.39440077  0.22194514  0.77652461    -0.51200
O112        O  0.38217487  0.32679535  0.73779243    -0.95900
O113        O  0.28715195  0.40401997  0.74769751    -0.53100
O114        O  0.33656366  0.34816612  0.80964854    -0.72400
C115        C  0.32222680  0.35489511  0.84416259     0.99900
O116        O  0.21797854  0.25843305  0.89736193    -0.61300
O117        O  0.10986413  0.27950394  0.72401126    -0.56100
O118        O  0.18133221  0.30804753  0.85222932    -0.92700
O119        O  0.14614633  0.32868117  0.79611646    -0.91200
O120        O  0.11966526  0.18118870  0.75946186    -0.91500
O121        O  0.16241857  0.14057319  0.81381495    -0.90300
C122        C  0.14975091  0.32662798  0.83391211     1.18700
H123        H  0.16685693  0.22502041  0.69125076     0.34700
H124        H  0.25592836  0.17635235  0.82368677     0.45500
H125        H  0.23497766  0.35467828  0.79396813     0.39100
H126        H  0.34118625  0.25724102  0.70212793     0.35600
H127        H  0.23052064  0.09110204  0.74602306     0.27300
H128        H  0.39637651  0.23665645  0.80283023     0.33300
H129        H  0.39251388  0.35462066  0.75056100     0.39200
H130        H  0.11067955  0.18179965  0.73121210     0.33600
H131        H  0.09396890  0.28626566  0.74822787     0.32500
H132        H  0.13536257  0.37981387  0.72296090     0.34200
H133        H  0.28604058  0.41271023  0.77596909     0.33200
H134        H  0.16243420  0.16304220  0.83533497     0.37200
H135        H  0.21733983  0.22598173  0.90055105     0.29900
H136        H  0.28175297  0.22706087  0.59388274     0.34100
H137        H  0.31129557  0.35115716  0.66644554     0.37000
H138        H  0.09927421  0.30104017  0.70439749     0.29600
H139        H  0.23986033  0.26941031  0.91674698     0.42500
H140        H  0.36130197  0.11855354  0.77764439     0.32500
H141        H  0.24531883  0.10472558  0.78902820     0.40100
H142        H  0.25715672  0.40476932  0.73802357     0.32000
H143        H  0.40948633  0.19370112  0.78010871     0.32100
H144        H  0.31092458  0.26379382  0.61415046     0.32300
Zr145      Zr  0.15623913  0.75168390  0.27012185     2.17500
O146        O  0.08019926  0.76360912  0.27841636    -0.50000
O147        O  0.13838263  0.70837145  0.32897954    -0.73200
O148        O  0.11204569  0.71079904  0.22212935    -0.80000
O149        O  0.19582445  0.85879096  0.31923853    -0.81800
O150        O  0.15773511  0.65650032  0.21675561    -0.77400
O151        O  0.13534318  0.82211374  0.29899017    -0.89000
O152        O  0.19415845  0.66435132  0.34431949    -0.75000
O153        O  0.19624292  0.68594923  0.26019425    -0.84500
O154        O  0.21455695  0.75524568  0.31620005    -0.84200
O155        O  0.17937102  0.75515881  0.20169467    -0.70900
O156        O  0.19691190  0.81629924  0.25309936    -0.83100
Zr157      Zr  0.32123655  0.75457279  0.22312905     2.26400
Zr158      Zr  0.22128983  0.69023625  0.19349261     2.06300
Zr159      Zr  0.25592043  0.81806907  0.29834854     2.10000
Zr160      Zr  0.25405555  0.69001116  0.30662536     1.78800
O161        O  0.27433099  0.89571338  0.28995223    -0.91900
O162        O  0.25641375  0.61056144  0.29431219    -0.39700
O163        O  0.29711282  0.75279618  0.29036509    -0.76300
O164        O  0.27971300  0.69049154  0.24072779    -0.95000
O165        O  0.26300865  0.75302367  0.17645277    -0.88300
O166        O  0.28196573  0.82086592  0.23252882    -0.91100
C167        C  0.15626117  0.67802387  0.34969293     1.02600
C168        C  0.15544557  0.85478910  0.31562726     1.15500
C169        C  0.12302218  0.67435525  0.20629406     1.06300
O170        O  0.20951464  0.62081385  0.15762342    -0.93300
O171        O  0.28109559  0.64980452  0.17033709    -0.89000
O172        O  0.34216714  0.68606737  0.18860835    -0.82200
C173        C  0.32168040  0.65306016  0.17245741     1.13000
O174        O  0.15761366  0.85740270  0.17127713    -0.95300
Zr175      Zr  0.22288510  0.81817461  0.18725534     1.88900
O176        O  0.34029315  0.80077845  0.16648406    -0.71900
O177        O  0.19253915  0.70945274  0.12835191    -0.51200
O178        O  0.19748461  0.80801479  0.11905820    -0.95900
O179        O  0.22851482  0.89785365  0.19731135    -0.53100
O180        O  0.28164097  0.83761251  0.14597888    -0.72400
C181        C  0.32088619  0.82741892  0.14292649     0.99900
O182        O  0.39605504  0.73531091  0.21697438    -0.61300
O183        O  0.26134918  0.82559915  0.37028064    -0.56100
O184        O  0.36830495  0.79388274  0.27170794    -0.92700
O185        O  0.32806528  0.82798596  0.31780703    -0.91200
O186        O  0.27149364  0.70750018  0.37564098    -0.91500
O187        O  0.31908294  0.65721911  0.33276550    -0.90300
C188        C  0.36357287  0.81706933  0.30349834     1.18700
H189        H  0.20486205  0.75814753  0.34347418     0.34700
H190        H  0.29610944  0.66378959  0.24041814     0.45500
H191        H  0.29961062  0.84642989  0.22883843     0.39100
H192        H  0.15578105  0.75558063  0.18298133     0.35600
H193        H  0.23169669  0.59812525  0.30819196     0.27300
H194        H  0.21658280  0.70528003  0.11030595     0.33300
H195        H  0.22062727  0.79227557  0.10562538     0.39200
H196        H  0.28409347  0.73758495  0.37521385     0.33600
H197        H  0.26599541  0.85757639  0.37533404     0.32500
H198        H  0.26968241  0.90974081  0.31606481     0.34200
H199        H  0.25866576  0.90555021  0.19255032     0.33200
H200        H  0.34149899  0.66727818  0.31474173     0.37200
H201        H  0.41148260  0.76355050  0.21306200     0.29900
H202        H  0.06735401  0.73390160  0.28175077     0.34100
H203        H  0.13690786  0.84657169  0.19066007     0.37000
H204        H  0.23242454  0.81955902  0.38006896     0.29600
H205        H  0.40554822  0.72516651  0.24345906     0.42500
H206        H  0.21073853  0.59794990  0.17827657     0.32500
H207        H  0.24879249  0.60670071  0.26587815     0.40100
H208        H  0.22518491  0.90244143  0.22609150     0.32000
H209        H  0.17199744  0.68556401  0.12094042     0.32100
H210        H  0.06909000  0.77381223  0.25247942     0.32300
Zr211      Zr  0.75048465  0.22556798  0.33039693     2.17500
O212        O  0.74114532  0.23405045  0.40155799    -0.50000
O213        O  0.79088967  0.16182259  0.35111219    -0.73200
O214        O  0.68582350  0.18921293  0.35321066    -0.80000
O215        O  0.84180022  0.31054058  0.33419455    -0.81800
O216        O  0.64905644  0.16313084  0.29880190    -0.77400
O217        O  0.79211234  0.27794760  0.37231579    -0.89000
O218        O  0.82306450  0.13195937  0.29763684    -0.75000
O219        O  0.74042707  0.17106310  0.27917502    -0.84500
O220        O  0.81359852  0.22495692  0.29246454    -0.84200
O221        O  0.68810493  0.24719991  0.29294113    -0.70900
O222        O  0.75705803  0.29883437  0.30535367    -0.83100
Zr223      Zr  0.74774160  0.26464503  0.17629014     2.26400
Zr224      Zr  0.67959346  0.19310993  0.24055291     2.06300
Zr225      Zr  0.81918986  0.29720469  0.26605151     2.10000
Zr226      Zr  0.80264852  0.17194176  0.24041593     1.78800
O227        O  0.83600222  0.37465266  0.27964279    -0.91900
O228        O  0.77954129  0.09584400  0.22788131    -0.39700
O229        O  0.81005630  0.24379864  0.21366735    -0.76300
O230        O  0.74191796  0.19127174  0.20123136    -0.95000
O231        O  0.68489184  0.26561299  0.21429552    -0.88300
O232        O  0.75855080  0.31918416  0.22753156    -0.91100
C233        C  0.81482448  0.13368632  0.33430132     1.02600
C234        C  0.82505948  0.30288562  0.36766867     1.15500
C235        C  0.65489090  0.16771455  0.33616165     1.06300
O236        O  0.66606319  0.11425693  0.23149419    -0.93300
O237        O  0.65573799  0.17637031  0.17313883    -0.89000
O238        O  0.69691794  0.21988763  0.13527603    -0.82200
C239        C  0.66727873  0.19047464  0.13937096     1.13000
O240        O  0.66332322  0.34364679  0.32672774    -0.95300
Zr241      Zr  0.69642547  0.31884154  0.26604543     1.88900
O242        O  0.71000204  0.32918374  0.15343703    -0.71900
O243        O  0.60488238  0.21352938  0.23528996    -0.51200
O244        O  0.61894109  0.32015274  0.26154210    -0.95900
O245        O  0.71680128  0.39411610  0.28517361    -0.53100
O246        O  0.68095868  0.36044068  0.20793959    -0.72400
C247        C  0.68767865  0.35835027  0.17083770     0.99900
O248        O  0.77247739  0.25141964  0.10936031    -0.61300
O249        O  0.89379448  0.27594629  0.26639002    -0.56100
O250        O  0.81286144  0.29983672  0.15431507    -0.92700
O251        O  0.84666465  0.33154314  0.20807960    -0.91200
O252        O  0.88018923  0.17310121  0.23968074    -0.91500
O253        O  0.83116071  0.14280387  0.17915892    -0.90300
C254        C  0.84214301  0.32407090  0.17088703     1.18700
H255        H  0.83842364  0.21867883  0.30849180     0.34700
H256        H  0.73903436  0.16969566  0.18019905     0.45500
H257        H  0.76373963  0.34808585  0.21656987     0.39100
H258        H  0.66323211  0.24847552  0.30890738     0.35600
H259        H  0.80483424  0.07780263  0.23426170     0.27300
H260        H  0.58888260  0.18628809  0.24166719     0.33300
H261        H  0.61184446  0.35156999  0.25754400     0.39200
H262        H  0.88863023  0.14250275  0.24584242     0.33600
H263        H  0.90147829  0.27439232  0.23817250     0.32500
H264        H  0.81370167  0.38462041  0.29781601     0.34200
H265        H  0.73767769  0.40343263  0.26536015     0.33200
H266        H  0.82160875  0.16377567  0.15862890     0.37200
H267        H  0.77216766  0.21892642  0.10566120     0.29900
H268        H  0.73733543  0.20384430  0.41187322     0.34100
H269        H  0.67794395  0.32694747  0.34796722     0.37000
H270        H  0.90942847  0.30221590  0.27707290     0.29600
H271        H  0.74970482  0.26231099  0.09137673     0.42500
H272        H  0.63504669  0.11041921  0.23515502     0.32500
H273        H  0.75938780  0.08922715  0.24916785     0.40100
H274        H  0.73388258  0.39112769  0.30998156     0.32000
H275        H  0.60047629  0.23347310  0.25818817     0.32100
H276        H  0.71319469  0.24836544  0.40456518     0.32300
Zr277      Zr  0.75630237  0.27259349  0.82789847     2.17500
O278        O  0.77295292  0.26410148  0.89825958    -0.50000
O279        O  0.71281491  0.33503842  0.84901086    -0.73200
O280        O  0.82270887  0.31134082  0.84972905    -0.80000
O281        O  0.66803594  0.18279817  0.82850897    -0.81800
O282        O  0.85577424  0.33701442  0.79523430    -0.77400
O283        O  0.71416230  0.22185937  0.86880133    -0.89000
O284        O  0.67300986  0.35727966  0.79610783    -0.75000
O285        O  0.76100184  0.32616103  0.77671021    -0.84500
O286        O  0.69199744  0.26683150  0.78893601    -0.84200
O287        O  0.81724231  0.25221862  0.78983671    -0.70900
O288        O  0.75330823  0.19815913  0.80223969    -0.83100
Zr289      Zr  0.75371277  0.22612495  0.67178958     2.26400
Zr290      Zr  0.82025563  0.30519492  0.73757565     2.06300
Zr291      Zr  0.68993602  0.19371112  0.76181396     2.10000
Zr292      Zr  0.69711620  0.31955820  0.73768890     1.78800
O293        O  0.69307681  0.11449732  0.77304860    -0.91900
O294        O  0.71474912  0.39694387  0.72665581    -0.39700
O295        O  0.69327384  0.24652099  0.71003559    -0.76300
O296        O  0.75620634  0.30088879  0.69763678    -0.95000
O297        O  0.81809582  0.23165882  0.71066038    -0.88300
O298        O  0.74917738  0.17312774  0.72317909    -0.91100
C299        C  0.68360707  0.35882260  0.83290784     1.02600
C300        C  0.68295597  0.19429839  0.86262026     1.15500
C301        C  0.85289235  0.33252777  0.83263880     1.06300
O302        O  0.82191841  0.38456110  0.72703859    -0.93300
O303        O  0.83902007  0.31997382  0.67006347    -0.89000
O304        O  0.79744018  0.27522233  0.63018214    -0.82200
C305        C  0.82587832  0.30599831  0.63593363     1.13000
O306        O  0.84844458  0.15422126  0.82295943    -0.95300
Zr307      Zr  0.81283021  0.17962559  0.76262289     1.88900
O308        O  0.79641379  0.16203431  0.65287417    -0.71900
O309        O  0.89711338  0.29673506  0.73270566    -0.51200
O310        O  0.88970712  0.19048327  0.75960108    -0.95900
O311        O  0.79775268  0.10212884  0.77630375    -0.53100
O312        O  0.83379740  0.13816048  0.70627263    -0.72400
C313        C  0.82331509  0.13604676  0.66967684     0.99900
O314        O  0.73231508  0.21863419  0.60219144    -0.56500
O315        O  0.61243732  0.19730815  0.76302694    -0.56100
O316        O  0.68315312  0.19486486  0.65044804    -0.92700
O317        O  0.65262336  0.16494764  0.70440170    -0.91200
O318        O  0.61978916  0.31317411  0.73349302    -0.91500
O319        O  0.66680907  0.34904972  0.67664115    -0.90300
C320        C  0.65360188  0.17230647  0.66732375     1.18700
H321        H  0.66729297  0.27164425  0.80473379     0.34700
H322        H  0.75668855  0.32230597  0.67664688     0.45500
H323        H  0.74493708  0.14336384  0.71215020     0.39100
H324        H  0.84324622  0.25249947  0.80562693     0.35600
H325        H  0.68840936  0.41309406  0.73275437     0.27300
H326        H  0.90910277  0.32698026  0.73594012     0.33300
H327        H  0.90118274  0.16102643  0.75313293     0.39200
H328        H  0.61401936  0.28235408  0.72470082     0.33600
H329        H  0.60305767  0.16789213  0.77213278     0.32500
H330        H  0.68723432  0.10046446  0.74684859     0.34200
H331        H  0.77947294  0.09122432  0.75390113     0.33200
H332        H  0.67856711  0.33040997  0.65536381     0.37200
H333        H  0.72791866  0.24907727  0.59273538     0.29900
H334        H  0.77677764  0.29437945  0.90923390     0.34100
H335        H  0.86737513  0.13012394  0.81448493     0.37000
H336        H  0.60600646  0.21773707  0.78510713     0.29600
H337        H  0.75799601  0.20827939  0.58859085     0.42500
H338        H  0.85080300  0.39433678  0.73597252     0.32500
H339        H  0.73494066  0.40530765  0.74847777     0.40100
H340        H  0.77870091  0.10264747  0.79919227     0.32000
H341        H  0.90611212  0.28134650  0.75714618     0.32100
H342        H  0.80162397  0.25084502  0.89966313     0.32300
C343        C  0.59938213  0.90531342  0.99512076    -0.01200
C344        C  0.59893259  0.10202637  0.99209026    -0.01200
C345        C  0.40614722  0.90290293  0.00370061    -0.01200
C346        C  0.40631295  0.09976477  0.00397090    -0.01200
Zr347      Zr  0.25086643  0.73767806  0.82634363     2.17500
O348        O  0.22662039  0.76213299  0.89096971    -0.50000
O349        O  0.29071205  0.67709666  0.85496749    -0.73200
O350        O  0.18506137  0.69859569  0.84698040    -0.80000
O351        O  0.34478732  0.82071642  0.82818177    -0.81800
O352        O  0.14756801  0.67725337  0.79163967    -0.77400
O353        O  0.29873593  0.78441736  0.86770378    -0.89000
O354        O  0.32313605  0.64142433  0.80446990    -0.75000
O355        O  0.24163824  0.68070708  0.77747340    -0.84500
O356        O  0.31586928  0.73374049  0.79096588    -0.84200
O357        O  0.19204284  0.75993663  0.78478055    -0.70900
O358        O  0.26304595  0.80855029  0.79721508    -0.83100
Zr359      Zr  0.25658689  0.77044738  0.66912271     2.26400
Zr360      Zr  0.18461866  0.70346681  0.73449544     2.06300
Zr361      Zr  0.32651536  0.80312223  0.75951511     2.10000
Zr362      Zr  0.30612659  0.67736932  0.74233404     1.78800
O363        O  0.33740307  0.88279501  0.76088790    -0.91900
O364        O  0.28120340  0.60132040  0.73335985    -0.39700
O365        O  0.31562935  0.74674241  0.71028636    -0.76300
O366        O  0.24905082  0.69833912  0.69824854    -0.95000
O367        O  0.19292413  0.77468466  0.70582721    -0.88300
O368        O  0.26812184  0.82712230  0.71832414    -0.91100
C369        C  0.31457255  0.64681521  0.84111616     1.02600
C370        C  0.33030635  0.81111287  0.86228052     1.15500
C371        C  0.15248540  0.67975529  0.82937037     1.06300
O372        O  0.17298289  0.62410917  0.72763991    -0.93300
O373        O  0.16658841  0.68469201  0.66611435    -0.89000
O374        O  0.21123643  0.72131172  0.62608919    -0.82200
C375        C  0.18047296  0.69360648  0.63167812     1.13000
O376        O  0.17832051  0.86281264  0.81654121    -0.95300
Zr377      Zr  0.20466705  0.83006375  0.75585870     1.88900
O378        O  0.21438501  0.83341755  0.64509495    -0.71900
O379        O  0.11021931  0.72303724  0.72393552    -0.51200
O380        O  0.12744552  0.83552949  0.75779559    -0.95900
O381        O  0.22836559  0.90634812  0.76670083    -0.53100
O382        O  0.18044196  0.86464574  0.69676415    -0.72400
C383        C  0.18849585  0.86141295  0.66011699     0.99900
O384        O  0.28084884  0.76522147  0.60117346    -0.61300
O385        O  0.40221675  0.78848148  0.76953532    -0.56100
O386        O  0.32492866  0.80105088  0.64736156    -0.92700
O387        O  0.36853217  0.81496535  0.70089161    -0.91200
O388        O  0.38376205  0.67942026  0.74385388    -0.91500
O389        O  0.33820254  0.64076584  0.68606950    -0.90300
C390        C  0.36082984  0.81345407  0.66340132     1.18700
H391        H  0.33963965  0.72771305  0.80855784     0.34700
H392        H  0.24698268  0.67554498  0.67818296     0.45500
H393        H  0.27441937  0.85481813  0.70626370     0.39100
H394        H  0.16635054  0.76219600  0.79978492     0.35600
H395        H  0.26217668  0.59599148  0.75579779     0.27300
H396        H  0.09501190  0.69443654  0.72015684     0.33300
H397        H  0.11676858  0.81820493  0.73453013     0.39200
H398        H  0.39228623  0.67483076  0.77187187     0.33600
H399        H  0.41421856  0.81550965  0.78247446     0.32500
H400        H  0.36753601  0.88706912  0.76947742     0.34200
H401        H  0.21328271  0.92364337  0.74615714     0.33200
H402        H  0.34463574  0.66495767  0.66761236     0.37200
H403        H  0.28371243  0.73330552  0.59527675     0.29900
H404        H  0.22423861  0.73510526  0.90700542     0.34100
H405        H  0.19547037  0.84917570  0.83799079     0.37000
H406        H  0.40385983  0.76569242  0.79022456     0.29600
H407        H  0.25663101  0.77502594  0.58429283     0.42500
H408        H  0.14241168  0.62064521  0.72029041     0.32500
H409        H  0.26181535  0.60179164  0.70984970     0.40100
H410        H  0.25853670  0.90726234  0.75906654     0.32000
H411        H  0.10083410  0.73422494  0.74991485     0.32100
H412        H  0.19697364  0.77203007  0.88648654     0.32300
C413        C  0.90664781  0.99302026  0.57995992    -0.01200
C414        C  0.09965438  0.00356719  0.57266702    -0.01200
C415        C  0.90233952  0.98740352  0.40563578    -0.01200
C416        C  0.09029563  0.00740794  0.39883385    -0.01200
Zr417      Zr  0.66212689  0.75915639  0.22300216     2.17500
O418        O  0.58484000  0.75485345  0.21324172    -0.50000
O419        O  0.64471230  0.80774984  0.16756893    -0.73200
O420        O  0.62233894  0.79769129  0.27485310    -0.80000
O421        O  0.68776225  0.67177563  0.15088846    -0.81800
O422        O  0.66890121  0.83238940  0.31767631    -0.77400
O423        O  0.63610306  0.69018103  0.19352638    -0.89000
O424        O  0.70533324  0.84189446  0.14782089    -0.75000
O425        O  0.70879840  0.81972594  0.23749119    -0.84500
O426        O  0.71716041  0.75706978  0.17523423    -0.84200
O427        O  0.68859495  0.74498757  0.28899568    -0.70900
O428        O  0.69807562  0.68964284  0.23056614    -0.83100
Zr429      Zr  0.82809477  0.73688434  0.26567209     2.26400
Zr430      Zr  0.73708821  0.80516323  0.30227957     2.06300
Zr431      Zr  0.75429135  0.68983742  0.18440269     2.10000
Zr432      Zr  0.76359259  0.81726772  0.18995656     1.78800
O433        O  0.75741526  0.60958678  0.18261725    -0.91900
O434        O  0.76064557  0.89623804  0.20372969    -0.39700
O435        O  0.80213140  0.74998341  0.19897272    -0.76300
O436        O  0.79222198  0.80603991  0.25491429    -0.95000
O437        O  0.77233134  0.73699991  0.31173266    -0.88300
O438        O  0.78216820  0.67568848  0.24946339    -0.91100
C439        C  0.66533203  0.83338533  0.14462569     1.02600
C440        C  0.65113075  0.66624033  0.16574000     1.15500
C441        C  0.63143330  0.82277985  0.30497279     1.06300
O442        O  0.73926850  0.88551168  0.30446031    -0.93300
O443        O  0.80053100  0.82775112  0.33805445    -0.89000
O444        O  0.85659030  0.79902029  0.30537439    -0.82200
C445        C  0.84001350  0.82600427  0.33011630     1.13000
O446        O  0.66429150  0.62708609  0.29329555    -0.95300
Zr447      Zr  0.72589028  0.67672678  0.29536708     1.88900
O448        O  0.84173205  0.69047293  0.32425987    -0.71900
O449        O  0.72307917  0.79366379  0.37197353    -0.51200
O450        O  0.68931385  0.68329039  0.35791085    -0.95900
O451        O  0.73902843  0.59773841  0.28869190    -0.53100
O452        O  0.77940957  0.66196634  0.34507027    -0.72400
C453        C  0.81943674  0.66883885  0.34933676     0.99900
O454        O  0.90439201  0.75253722  0.27158695    -0.61300
O455        O  0.76588778  0.69291865  0.11338086    -0.56100
O456        O  0.86960385  0.69451408  0.21732042    -0.92700
O457        O  0.82492360  0.66951646  0.16827242    -0.91200
O458        O  0.78934649  0.80558897  0.12322062    -0.91500
O459        O  0.82963664  0.85729119  0.17812188    -0.90300
C460        C  0.86192832  0.67369390  0.18429959     1.18700
H461        H  0.70595160  0.75752091  0.14832760     0.34700
H462        H  0.81059688  0.83147813  0.25901892     0.45500
H463        H  0.79787644  0.64812171  0.25027266     0.39100
H464        H  0.66603806  0.74408526  0.30803356     0.35600
H465        H  0.72989687  0.90314040  0.20364250     0.27300
H466        H  0.74783020  0.77695739  0.38224692     0.33300
H467        H  0.70117365  0.65955376  0.37460959     0.39200
H468        H  0.76455348  0.79362667  0.10776238     0.33600
H469        H  0.76027680  0.66246576  0.10348461     0.32500
H470        H  0.75870488  0.60163655  0.15418746     0.34200
H471        H  0.76942425  0.59378499  0.29609351     0.33200
H472        H  0.85226000  0.83787569  0.18868489     0.37200
H473        H  0.91823528  0.72362055  0.27516498     0.29900
H474        H  0.57492669  0.78578194  0.21265404     0.34100
H475        H  0.64099710  0.64470969  0.28147799     0.37000
H476        H  0.74208221  0.71032351  0.10221334     0.29600
H477        H  0.91298829  0.76264453  0.24516990     0.42500
H478        H  0.73307020  0.89352642  0.33218686     0.32500
H479        H  0.76997897  0.89949885  0.23178494     0.40100
H480        H  0.73736126  0.59147143  0.25989125     0.32000
H481        H  0.72623219  0.82327547  0.38445051     0.32100
H482        H  0.57356704  0.74258071  0.23796717     0.32300
C483        C  0.00704945  0.60530674  0.91814888    -0.01200
C484        C  0.00382591  0.59708377  0.09418674    -0.01200
C485        C  0.00379630  0.40519173  0.91856845    -0.01200
C486        C  0.99009936  0.39833181  0.09453977    -0.01200
Zr487      Zr  0.33318767  0.24594400  0.22937251     2.17500
O488        O  0.40834822  0.26566466  0.22416323    -0.50000
O489        O  0.34979570  0.19690606  0.17334722    -0.73200
O490        O  0.37933309  0.20573157  0.27811963    -0.80000
O491        O  0.29528385  0.33797137  0.16002768    -0.81800
O492        O  0.33746282  0.17587122  0.32514575    -0.77400
O493        O  0.35389807  0.31191767  0.19267606    -0.89000
O494        O  0.28884432  0.16140600  0.15379557    -0.75000
O495        O  0.29043335  0.18292455  0.24370589    -0.84500
O496        O  0.27438868  0.24575589  0.18298973    -0.84200
O497        O  0.30986020  0.25805889  0.29588358    -0.70900
O498        O  0.29475101  0.31351413  0.23969642    -0.83100
Zr499      Zr  0.16870319  0.25946335  0.27548893     2.26400
Zr500      Zr  0.26552010  0.19553156  0.30935338     2.06300
Zr501      Zr  0.23464338  0.31117626  0.19485424     2.10000
Zr502      Zr  0.23225287  0.18285275  0.19714923     1.78800
O503        O  0.22985064  0.39121897  0.19968974    -0.91900
O504        O  0.24107740  0.10392659  0.20766754    -0.39700
O505        O  0.19143396  0.24817611  0.20853392    -0.76300
O506        O  0.20686634  0.19146343  0.26274280    -0.95000
O507        O  0.22785634  0.26189865  0.32089989    -0.88300
O508        O  0.21065834  0.32318094  0.26075327    -0.91100
C509        C  0.32846274  0.17058019  0.14990542     1.02600
C510        C  0.33530319  0.33764089  0.16774833     1.15500
C511        C  0.37375657  0.18382768  0.31035186     1.06300
O512        O  0.26425616  0.11517869  0.30992899    -0.93300
O513        O  0.20430562  0.17881246  0.34874993    -0.89000
O514        O  0.14574192  0.19404864  0.31175923    -0.82200
C515        C  0.16541671  0.17151298  0.33836338     1.13000
O516        O  0.33715632  0.36558470  0.31406513    -0.95300
Zr517      Zr  0.27050881  0.32425172  0.30553303     1.88900
O518        O  0.15807785  0.30364289  0.33616952    -0.71900
O519        O  0.28732723  0.20316811  0.37879889    -0.51200
O520        O  0.30668560  0.32436874  0.37010926    -0.95900
O521        O  0.25576782  0.40142738  0.29183826    -0.53100
O522        O  0.21904635  0.33889271  0.35576727    -0.72400
C523        C  0.18002219  0.32815699  0.36078288     0.99900
O524        O  0.09134120  0.25554583  0.28010182    -0.61300
O525        O  0.21770328  0.30962679  0.12401768    -0.56100
O526        O  0.12044682  0.29654563  0.22738849    -0.92700
O527        O  0.16102520  0.32436530  0.17859875    -0.91200
O528        O  0.20080852  0.19306223  0.13135050    -0.91500
O529        O  0.16801855  0.13887104  0.18360762    -0.90300
C530        C  0.12503472  0.31670380  0.19425133     1.18700
H531        H  0.28365642  0.24576684  0.15589585     0.34700
H532        H  0.19047913  0.16464386  0.26621568     0.45500
H533        H  0.19382190  0.34988743  0.26286939     0.39100
H534        H  0.33399800  0.25997702  0.31410172     0.35600
H535        H  0.27047972  0.10084689  0.21843277     0.27300
H536        H  0.26664842  0.22377857  0.39041033     0.33300
H537        H  0.31126114  0.29289000  0.37620425     0.39200
H538        H  0.18115896  0.21817163  0.13419865     0.33600
H539        H  0.22509524  0.33951359  0.11458948     0.32500
H540        H  0.21334695  0.39980116  0.17573032     0.34200
H541        H  0.27624667  0.40976192  0.27130386     0.33200
H542        H  0.14583311  0.15328836  0.19939342     0.37200
H543        H  0.08281649  0.22662733  0.26825397     0.29900
H544        H  0.42304481  0.23762435  0.21851667     0.34100
H545        H  0.35629708  0.35242436  0.29439863     0.37000
H546        H  0.23901115  0.29002521  0.11208369     0.29600
H547        H  0.08567521  0.25275057  0.30866597     0.42500
H548        H  0.23491523  0.10672283  0.30132368     0.32500
H549        H  0.22267031  0.09670730  0.23010162     0.40100
H550        H  0.26577759  0.41770792  0.31592926     0.32000
H551        H  0.28066562  0.17427249  0.39065207     0.32100
H552        H  0.41810384  0.27446438  0.25122158     0.32300
C553        C  0.05568632  0.34485011  0.10524592     0.24900
C554        C  0.02467827  0.37380762  0.12100350    -0.23200
C555        C  0.02234367  0.37451643  0.16324429     0.19800
C556        C  0.05384029  0.35507800  0.18754594     0.24800
C557        C  0.08729291  0.33176501  0.17075251    -0.23200
C558        C  0.08666066  0.32542358  0.12958144     0.19700
F559        F  0.11601322  0.29910211  0.11259795    -0.13100
F560        F  0.05539988  0.33197553  0.06673497    -0.15500
F561        F  0.05254653  0.36083572  0.22738273    -0.15500
F562        F  0.99036630  0.39603271  0.18142270    -0.13100
C563        C  0.96396590  0.37790225  0.98205730     0.24900
C564        C  0.00122271  0.39423176  0.96375994    -0.23200
C565        C  0.03539974  0.40733818  0.98947914     0.19800
C566        C  0.03223182  0.40570765  0.03061892     0.24800
C567        C  0.99542642  0.38883951  0.04895887    -0.23200
C568        C  0.96189492  0.37324619  0.02312592     0.19700
F569        F  0.92348666  0.36020469  0.03654760    -0.13100
F570        F  0.92652646  0.37183203  0.96179568    -0.15500
F571        F  0.06482419  0.42328897  0.05300842    -0.15500
F572        F  0.07188821  0.42409822  0.97471955    -0.13100
C573        C  0.97659486  0.52131531  0.06621628     0.24900
C574        C  0.99916224  0.54562545  0.09619146    -0.23200
C575        C  0.01168320  0.52114886  0.12980567     0.19800
C576        C  0.01469902  0.47511730  0.12783680     0.24800
C577        C  0.99261423  0.45035851  0.09773561    -0.23200
C578        C  0.97038384  0.47590800  0.06893771     0.19700
F579        F  0.94219536  0.45725335  0.04254701    -0.13100
F580        F  0.95839085  0.54088896  0.03428684    -0.15500
F581        F  0.03985963  0.45677262  0.15585071    -0.15500
F582        F  0.02372385  0.54113771  0.16438870    -0.13100
C583        C  0.97330953  0.48267022  0.93416298     0.24900
C584        C  0.00688097  0.45728935  0.91854351    -0.23200
C585        C  0.04345507  0.48152404  0.90711971     0.19800
C586        C  0.04377554  0.52778112  0.90555409     0.24800
C587        C  0.00812249  0.55307751  0.91709202    -0.23200
C588        C  0.97405957  0.52897037  0.93366543     0.19700
F589        F  0.94012189  0.55052848  0.94840873    -0.13100
F590        F  0.93832780  0.46257256  0.94880042    -0.15500
F591        F  0.08137070  0.54690096  0.89615628    -0.15500
F592        F  0.08109879  0.46157898  0.90055390    -0.13100
C593        C  0.97635324  0.63600376  0.98640729     0.24900
C594        C  0.00876826  0.61539740  0.96410574    -0.23200
C595        C  0.04302084  0.59764730  0.98661004     0.19800
C596        C  0.04098745  0.59285521  0.02746485     0.24800
C597        C  0.00721848  0.61048935  0.04949220    -0.23200
C598        C  0.97834094  0.63733384  0.02815909     0.19700
F599        F  0.95150903  0.66489045  0.04682317    -0.13100
F600        F  0.94095396  0.65297951  0.96926539    -0.15500
F601        F  0.07185590  0.56865626  0.04512166    -0.15500
F602        F  0.07775351  0.58126989  0.96869621    -0.13100
C603        C  0.89024493  0.63439568  0.12422664     0.24900
C604        C  0.89730824  0.65262267  0.16255521    -0.23200
C605        C  0.93761123  0.64778132  0.18028019     0.19800
C606        C  0.97045067  0.62806272  0.15956533     0.24800
C607        C  0.96537825  0.61482829  0.11879909    -0.23200
C608        C  0.92298676  0.61393853  0.10380311     0.19700
F609        F  0.91250543  0.59442031  0.06866279    -0.13100
F610        F  0.85143305  0.63625528  0.10578209    -0.15500
F611        F  0.00664739  0.62072317  0.18097144    -0.15500
F612        F  0.94534875  0.66081904  0.21839198    -0.13100
C613        C  0.09989667  0.12597978  0.35363857     0.24900
C614        C  0.14427259  0.13250088  0.35590764    -0.23200
C615        C  0.16954151  0.09914678  0.37259766     0.19800
C616        C  0.15151124  0.05960341  0.38434037     0.24800
C617        C  0.10695911  0.05168980  0.38148799    -0.23200
C618        C  0.08125291  0.08663219  0.36695672     0.19700
F619        F  0.03821656  0.08495229  0.36771239    -0.13100
F620        F  0.07420389  0.15841047  0.33988794    -0.15500
F621        F  0.17819661  0.02843747  0.39896001    -0.15500
F622        F  0.21243023  0.10391648  0.37714057    -0.13100
C623        C  0.89668544  0.90152589  0.40244767     0.24900
C624        C  0.88794802  0.94326486  0.38499304    -0.23200
C625        C  0.87254748  0.94236420  0.34505548     0.19800
C626        C  0.86219232  0.90269927  0.32596417     0.24800
C627        C  0.86531004  0.86282359  0.34596275    -0.23200
C628        C  0.88300416  0.86213976  0.38406080     0.19700
F629        F  0.88582216  0.82354062  0.40392589    -0.13100
F630        F  0.91644631  0.89818150  0.43825798    -0.15500
F631        F  0.84670937  0.90345721  0.28810927    -0.15500
F632        F  0.86810749  0.97941032  0.32327450    -0.13100
C633        C  0.97770818  0.97708304  0.43369206     0.24900
C634        C  0.95126229  0.98714971  0.40124222    -0.23200
C635        C  0.97168201  0.99301990  0.36462296     0.19800
C636        C  0.01602222  0.99971393  0.36363722     0.24800
C637        C  0.04101533  0.00069009  0.39908907    -0.23200
C638        C  0.02040032  0.98519430  0.43331080     0.19700
F639        F  0.04100083  0.97178395  0.46634468    -0.13100
F640        F  0.96321992  0.95729715  0.46652354    -0.15500
F641        F  0.03432157  0.00595972  0.32812818    -0.15500
F642        F  0.94891274  0.99532149  0.33019408    -0.13100
C643        C  0.12910024  0.97680432  0.46264858     0.24900
C644        C  0.10682793  0.01050496  0.44269638    -0.23200
C645        C  0.09146482  0.04565463  0.46610997     0.19800
C646        C  0.09006155  0.04251757  0.50683298     0.24800
C647        C  0.10541303  0.00503965  0.52699300    -0.23200
C648        C  0.12489590  0.97183142  0.50361264     0.19700
F649        F  0.13541401  0.93197083  0.51841556    -0.13100
F650        F  0.15222080  0.94652188  0.44293123    -0.15500
F651        F  0.06968524  0.07521654  0.52604105    -0.15500
F652        F  0.07151201  0.08059277  0.44947561    -0.13100
C653        C  0.91388981  0.02833933  0.51283016     0.24900
C654        C  0.89633167  0.99352342  0.53461615    -0.23200
C655        C  0.87306458  0.96011626  0.51269248     0.19800
C656        C  0.86729038  0.96279105  0.47168531     0.24800
C657        C  0.89129363  0.99327471  0.45017866    -0.23200
C658        C  0.91034582  0.02903771  0.47195526     0.19700
F659        F  0.93114185  0.06221896  0.45390626    -0.13100
F660        F  0.93604176  0.06171241  0.53141079    -0.15500
F661        F  0.83993377  0.93366223  0.45344929    -0.15500
F662        F  0.85895160  0.92218175  0.52893026    -0.13100
C663        C  0.98256735  0.02204811  0.60819536     0.24900
C664        C  0.95725494  0.99345131  0.58331337    -0.23200
C665        C  0.98067071  0.96370178  0.55951923     0.19800
C666        C  0.02528325  0.96722502  0.55636192     0.24800
C667        C  0.04965347  0.99902986  0.57851831    -0.23200
C668        C  0.02712342  0.01886584  0.60972651     0.19700
F669        F  0.04744803  0.03227492  0.64376071    -0.13100
F670        F  0.96601892  0.05325142  0.63197526    -0.15500
F671        F  0.04511297  0.93609651  0.53460615    -0.15500
F672        F  0.96027582  0.93017967  0.53964765    -0.13100
C673        C  0.12264048  0.90089935  0.64043020     0.24900
C674        C  0.16580591  0.89301959  0.63461331    -0.23200
C675        C  0.18773962  0.91963076  0.60868251     0.19800
C676        C  0.16718791  0.95403423  0.58898721     0.24800
C677        C  0.12291029  0.96354338  0.59409983    -0.23200
C678        C  0.10158880  0.93517134  0.62115480     0.19700
F679        F  0.06039153  0.93978849  0.63107137    -0.13100
F680        F  0.10045407  0.87546299  0.66580714    -0.15500
F681        F  0.19119381  0.97451304  0.56221877    -0.15500
F682        F  0.22991514  0.91317926  0.60305784    -0.13100
C683        C  0.08668445  0.63153678  0.83512580     0.24900
C684        C  0.11697918  0.66059977  0.85318415    -0.23200
C685        C  0.11042589  0.67364085  0.89267111     0.19800
C686        C  0.07510193  0.65786613  0.91354419     0.24800
C687        C  0.04571640  0.62660829  0.89615309    -0.23200
C688        C  0.05157718  0.61581875  0.85573866     0.19700
F689        F  0.02427680  0.58761569  0.83629324    -0.13100
F690        F  0.09100073  0.61740290  0.79716229    -0.15500
F691        F  0.06918046  0.67552876  0.95001481    -0.15500
F692        F  0.13729292  0.70327399  0.91091333    -0.13100
C693        C  0.41335448  0.12968560  0.07899902     0.24900
C694        C  0.38868098  0.11801378  0.04424463    -0.23200
C695        C  0.34378981  0.11994598  0.04780112     0.19800
C696        C  0.32490822  0.13690004  0.08158795     0.24800
C697        C  0.34964217  0.15095617  0.11471173    -0.23200
C698        C  0.39405108  0.14643199  0.11315438     0.19700
F699        F  0.41906508  0.15686569  0.14532032    -0.13100
F700        F  0.45584965  0.12299110  0.08201805    -0.15500
F701        F  0.28183601  0.14056738  0.08104114    -0.15500
F702        F  0.31731966  0.10643982  0.01766190    -0.13100
C703        C  0.37007014  0.83405091  0.96797263     0.24900
C704        C  0.38692857  0.87798703  0.96615282    -0.23200
C705        C  0.38980160  0.89600258  0.92775483     0.19800
C706        C  0.37189211  0.87427271  0.89436660     0.24800
C707        C  0.35116027  0.83308850  0.89757954    -0.23200
C708        C  0.35135790  0.81291896  0.93468498     0.19700
F709        F  0.33493162  0.77157881  0.93866026    -0.13100
F710        F  0.37295040  0.80985670  0.00143160    -0.15500
F711        F  0.37425143  0.89438445  0.85879002    -0.15500
F712        F  0.40917356  0.93540106  0.92192091    -0.13100
C713        C  0.41671335  0.97838610  0.03802054     0.24900
C714        C  0.39411911  0.95327508  0.00859401    -0.23200
C715        C  0.36445909  0.97709984  0.98503324     0.19800
C716        C  0.36418326  0.02391492  0.98599963     0.24800
C717        C  0.39617187  0.04856811  0.00752595    -0.23200
C718        C  0.41969767  0.02424306  0.03595811     0.19700
F719        F  0.44861559  0.04428968  0.06064699    -0.13100
F720        F  0.44217877  0.95835596  0.06518436    -0.15500
F721        F  0.33188512  0.04417795  0.96638589    -0.15500
F722        F  0.33489197  0.95587778  0.96168222    -0.13100
C723        C  0.52594962  0.14138176  0.00964523     0.24900
C724        C  0.54821288  0.10581308  0.99118195    -0.23200
C725        C  0.52140293  0.07689198  0.96854347     0.19800
C726        C  0.47738542  0.07575422  0.97285031     0.24800
C727        C  0.45584538  0.10542297  0.99762717    -0.23200
C728        C  0.48083121  0.14212973  0.01074352     0.19700
F729        F  0.46206118  0.17896977  0.02494598    -0.13100
F730        F  0.54709512  0.17738090  0.02456166    -0.15500
F731        F  0.45587435  0.04641488  0.94978500    -0.15500
F732        F  0.53569457  0.05193834  0.93865174    -0.13100
C733        C  0.59962507  0.90123441  0.07212086     0.24900
C734        C  0.61287812  0.88329908  0.03530395    -0.23200
C735        C  0.63533071  0.84267397  0.03733371     0.19800
C736        C  0.65181020  0.82739212  0.07310849     0.24800
C737        C  0.64355151  0.84921773  0.10859335    -0.23200
C738        C  0.61584156  0.88511652  0.10830272     0.19700
F739        F  0.60568542  0.90545526  0.14274448    -0.13100
F740        F  0.57272726  0.93599543  0.07306402    -0.15500
F741        F  0.67570135  0.79026518  0.07313528    -0.15500
F742        F  0.63932878  0.81516169  0.00574228    -0.13100
C743        C  0.47953331  0.93695083  0.98622573     0.24900
C744        C  0.45622918  0.89997316  0.99902088    -0.23200
C745        C  0.48059738  0.86112325  0.00347801     0.19800
C746        C  0.52586537  0.86223552  0.00044636     0.24800
C747        C  0.54886871  0.90265470  0.99448171    -0.23200
C748        C  0.52318814  0.94032988  0.99036574     0.19700
F749        F  0.53815183  0.98218666  0.99271533    -0.13100
F750        F  0.46044987  0.97158129  0.96931883    -0.15500
F751        F  0.54713546  0.82374204  0.00420119    -0.15500
F752        F  0.46098935  0.82210998  0.01102601    -0.13100
C753        C  0.63383235  0.98120426  0.02357437     0.24900
C754        C  0.61544133  0.95530850  0.99204908    -0.23200
C755        C  0.60978022  0.97863315  0.95613744     0.19800
C756        C  0.61102389  0.02518948  0.95547793     0.24800
C757        C  0.61302427  0.05098870  0.99108160    -0.23200
C758        C  0.63243996  0.02796441  0.02318604     0.19700
F759        F  0.65456018  0.04967005  0.05242922    -0.13100
F760        F  0.65579656  0.96241359  0.05382573    -0.15500
F761        F  0.60871772  0.04456506  0.91946181    -0.15500
F762        F  0.59866261  0.95695844  0.92202344    -0.13100
C763        C  0.95492410  0.34088809  0.89381693     0.24900
C764        C  0.96389097  0.38706680  0.89432375    -0.23200
C765        C  0.93617221  0.41378925  0.87101422     0.19800
C766        C  0.89875229  0.39624723  0.85352477     0.24800
C767        C  0.88863284  0.35137796  0.85654398    -0.23200
C768        C  0.91769294  0.32354585  0.87558608     0.19700
F769        F  0.91095717  0.27916912  0.87502372    -0.13100
F770        F  0.98149999  0.31246642  0.91249956    -0.15500
F771        F  0.87286405  0.42307022  0.83212565    -0.15500
F772        F  0.94585134  0.45615788  0.86215742    -0.13100
C773        C  0.61816450  0.17693839  0.90065937     0.24900
C774        C  0.66225546  0.17312470  0.89637273    -0.23200
C775        C  0.68474952  0.14397879  0.92062573     0.19800
C776        C  0.66386755  0.12035865  0.94996890     0.24800
C777        C  0.61923231  0.12450212  0.95556138    -0.23200
C778        C  0.59668025  0.15284883  0.92929702     0.19700
F779        F  0.55414865  0.15914577  0.93126101    -0.13100
F780        F  0.59566471  0.20462574  0.87698671    -0.15500
F781        F  0.68788323  0.09470943  0.97420109    -0.15500
F782        F  0.72691989  0.13743628  0.91521576    -0.13100
C783        C  0.86718560  0.06738223  0.66541727     0.24900
C784        C  0.84389864  0.10071832  0.64619963    -0.23200
C785        C  0.84006709  0.09903558  0.60487316     0.19800
C786        C  0.85908514  0.06532722  0.58315317     0.24800
C787        C  0.88564720  0.03318460  0.60190671    -0.23200
C788        C  0.88710685  0.03439574  0.64391929     0.19700
F789        F  0.90855612  0.00331598  0.66480549    -0.13100
F790        F  0.87050388  0.06577987  0.70552138    -0.15500
F791        F  0.84757032  0.06342304  0.54433116    -0.15500
F792        F  0.81673827  0.12947113  0.58499990    -0.13100
C793        C  0.90443572  0.31606206  0.12866396     0.24900
C794        C  0.87457911  0.34339759  0.14610430    -0.23200
C795        C  0.87983130  0.38912589  0.14501848     0.19800
C796        C  0.91514095  0.40789031  0.12713731     0.24800
C797        C  0.94666612  0.38072564  0.10964160    -0.23200
C798        C  0.93978369  0.33426092  0.11049005     0.19700
F799        F  0.96810334  0.30615801  0.09434216    -0.13100
F800        F  0.90096783  0.27151221  0.13179180    -0.15500
F801        F  0.91860005  0.45243037  0.12989496    -0.15500
F802        F  0.85154083  0.41579938  0.16311721    -0.13100
C803        C  0.63982196  0.16758347  0.03057795     0.24900
C804        C  0.61564062  0.12721724  0.03091256    -0.23200
C805        C  0.60204194  0.11371346  0.06875075     0.19800
C806        C  0.61768830  0.13437773  0.10387161     0.24800
C807        C  0.64642110  0.17059027  0.10266710    -0.23200
C808        C  0.65534839  0.18783598  0.06542879     0.19700
F809        F  0.67783047  0.22612533  0.06227047    -0.13100
F810        F  0.64589519  0.19107444  0.99728931    -0.15500
F811        F  0.60430306  0.11876189  0.13898901    -0.15500
F812        F  0.57386118  0.07962823  0.07178941    -0.13100
C813        C  0.83495995  0.02855388  0.38652215     0.24900
C814        C  0.88023212  0.02788607  0.38753180    -0.23200
C815        C  0.90231371  0.06675208  0.37601834     0.19800
C816        C  0.88015750  0.10231342  0.36101516     0.24800
C817        C  0.83587051  0.10097069  0.35811410    -0.23200
C818        C  0.81313847  0.06464286  0.37158224     0.19700
F819        F  0.76994953  0.06322761  0.36831871    -0.13100
F820        F  0.81174933  0.99351788  0.39895459    -0.15500
F821        F  0.90214575  0.13836528  0.34881351    -0.15500
F822        F  0.94490679  0.07268450  0.38116320    -0.13100
C823        C  0.10841733  0.88611393  0.36549311     0.24900
C824        C  0.13178088  0.89147004  0.33148219    -0.23200
C825        C  0.13949480  0.93359726  0.31696597     0.19800
C826        C  0.12571692  0.97072402  0.33728717     0.24800
C827        C  0.10575065  0.96670239  0.37456905    -0.23200
C828        C  0.09500562  0.92297461  0.38652046     0.19700
F829        F  0.07304851  0.91509829  0.41969395    -0.13100
F830        F  0.10107725  0.84513630  0.37992470    -0.15500
F831        F  0.13097909  0.00977586  0.31876770    -0.15500
F832        F  0.16120741  0.93878673  0.28300324    -0.13100
C833        C  0.34150611  0.88223450  0.04449103     0.24900
C834        C  0.38663459  0.88308542  0.04203683    -0.23200
C835        C  0.40999154  0.86785377  0.07561229     0.19800
C836        C  0.38897236  0.84974969  0.10825694     0.24800
C837        C  0.34414875  0.84727423  0.10908915    -0.23200
C838        C  0.32091980  0.86445655  0.07677739     0.19700
F839        F  0.27763146  0.86334467  0.07551048    -0.13100
F840        F  0.31647699  0.89721875  0.01439006    -0.15500
F841        F  0.41271327  0.83591413  0.13970242    -0.15500
F842        F  0.45288691  0.87239234  0.07859568    -0.13100
C843        C  0.04688882  0.66411538  0.11869975     0.24900
C844        C  0.04533958  0.61769722  0.11289652    -0.23200
C845        C  0.07961005  0.59344221  0.12926842     0.19800
C846        C  0.10387281  0.61138073  0.16066129     0.24800
C847        C  0.09862744  0.65563381  0.17229786    -0.23200
C848        C  0.07259506  0.68271472  0.14880638     0.19700
F849        F  0.07030937  0.72679737  0.15607971    -0.13100
F850        F  0.01891791  0.69061935  0.09942236    -0.15500
F851        F  0.13057847  0.58448556  0.18101051    -0.15500
F852        F  0.08877374  0.55190695  0.11701534    -0.13100
C853        C  0.35903940  0.12939182  0.89856081     0.24900
C854        C  0.34460920  0.17276881  0.90376655    -0.23200
C855        C  0.35173342  0.19306414  0.94082107     0.19800
C856        C  0.37210390  0.17032272  0.97200102     0.24800
C857        C  0.38434434  0.12507484  0.96811486    -0.23200
C858        C  0.37892500  0.10645162  0.92938877     0.19700
F859        F  0.39090653  0.06505791  0.92011564    -0.13100
F860        F  0.35324077  0.10805348  0.86321224    -0.15500
F861        F  0.38031182  0.19372893  0.00582918    -0.15500
F862        F  0.34060669  0.23579354  0.94655141    -0.13100
C863        C  0.05043933  0.39287233  0.85779332     0.24900
C864        C  0.04266650  0.38285968  0.89785259    -0.23200
C865        C  0.06988279  0.35093591  0.91565953     0.19800
C866        C  0.10544564  0.33428340  0.89585766     0.24800
C867        C  0.11404168  0.34663937  0.85681594    -0.23200
C868        C  0.08566961  0.37614500  0.83818124     0.19700
F869        F  0.09211701  0.38983120  0.80066551    -0.13100
F870        F  0.02468740  0.42097299  0.83771526    -0.15500
F871        F  0.13048118  0.30449069  0.91464996    -0.15500
F872        F  0.06126338  0.33302527  0.95118073    -0.13100
C873        C  0.18787952  0.08806898  0.60523797     0.24900
C874        C  0.16685670  0.11225112  0.63407535    -0.23200
C875        C  0.12238026  0.11208530  0.63319969     0.19800
C876        C  0.09996378  0.08338066  0.60768170     0.24800
C877        C  0.12124243  0.04821450  0.58858595    -0.23200
C878        C  0.16465005  0.05843290  0.58091967     0.19700
F879        F  0.18197885  0.04770314  0.54579001    -0.13100
F880        F  0.23018983  0.09421901  0.59958018    -0.15500
F881        F  0.05956276  0.09501561  0.59780060    -0.15500
F882        F  0.10068630  0.14214453  0.65473743    -0.13100
C883        C  0.58765640  0.18036931  0.62445986     0.24900
C884        C  0.61707644  0.15326391  0.64405389    -0.23200
C885        C  0.60621831  0.10877526  0.64942107     0.19800
C886        C  0.56787197  0.09102864  0.63419587     0.24800
C887        C  0.53969944  0.11662564  0.61033436    -0.23200
C888        C  0.54909109  0.16264965  0.60868471     0.19700
F889        F  0.52170713  0.19030957  0.59006896    -0.13100
F890        F  0.59539159  0.22442713  0.62211898    -0.15500
F891        F  0.55768666  0.04965771  0.64593769    -0.15500
F892        F  0.63228512  0.08250270  0.67122627    -0.13100
C893        C  0.45460023  0.11157525  0.64971160     0.24900
C894        C  0.46031821  0.11883301  0.60885566    -0.23200
C895        C  0.43154675  0.14892129  0.59041011     0.19800
C896        C  0.39622787  0.16559510  0.61045173     0.24800
C897        C  0.38933503  0.15514999  0.65022575    -0.23200
C898        C  0.41941315  0.12803735  0.66948889     0.19700
F899        F  0.41480215  0.11652389  0.70786149    -0.13100
F900        F  0.48227275  0.08625681  0.67059631    -0.15500
F901        F  0.36981318  0.19367945  0.59110109    -0.15500
F902        F  0.43834298  0.16527932  0.55392405    -0.13100
C903        C  0.47044301  0.83145139  0.61962988     0.24900
C904        C  0.46420958  0.86993462  0.59624149    -0.23200
C905        C  0.42053314  0.88031791  0.58818508     0.19800
C906        C  0.38716138  0.86014674  0.60838020     0.24800
C907        C  0.39539685  0.82853951  0.63717004    -0.23200
C908        C  0.43712425  0.81299108  0.64143376     0.19700
F909        F  0.44551827  0.77885214  0.66596982    -0.13100
F910        F  0.50815005  0.81004177  0.62070287    -0.15500
F911        F  0.34666198  0.87390063  0.60148035    -0.15500
F912        F  0.40887294  0.91270673  0.56342295    -0.13100
C913        C  0.47035390  0.97162954  0.60864172     0.24900
C914        C  0.50200033  0.94893130  0.58741547    -0.23200
C915        C  0.53345894  0.97564387  0.56985032     0.19800
C916        C  0.53252406  0.02156201  0.57180339     0.24800
C917        C  0.49873086  0.04463071  0.58957394    -0.23200
C918        C  0.46650244  0.01788193  0.60647838     0.19700
F919        F  0.42964594  0.03498494  0.61940469    -0.13100
F920        F  0.44243776  0.95006203  0.63163639    -0.15500
F921        F  0.56561367  0.04353343  0.55574865    -0.15500
F922        F  0.56509021  0.95737072  0.54883239    -0.13100
C923        C  0.43911711  0.13719245  0.31787375     0.24900
C924        C  0.41054069  0.16703366  0.33396803    -0.23200
C925        C  0.41304828  0.17583871  0.37493424     0.19800
C926        C  0.44266729  0.15449792  0.39962079     0.24800
C927        C  0.46964092  0.12133748  0.38445711    -0.23200
C928        C  0.46793955  0.11456185  0.34249725     0.19700
F929        F  0.49328604  0.08449489  0.32505406    -0.13100
F930        F  0.43757888  0.12799972  0.27845586    -0.15500
F931        F  0.44539053  0.16829728  0.43788821    -0.15500
F932        F  0.38654630  0.20571877  0.39129703    -0.13100
C933        C  0.57315980  0.08679102  0.36893108     0.24900
C934        C  0.54651159  0.11336157  0.39281406    -0.23200
C935        C  0.55751895  0.15884619  0.39695340     0.19800
C936        C  0.59536635  0.17556718  0.38200146     0.24800
C937        C  0.62177206  0.14824233  0.36009801    -0.23200
C938        C  0.61019637  0.10413813  0.35329144     0.19700
F939        F  0.63346639  0.07841174  0.32889989    -0.13100
F940        F  0.56201920  0.04545463  0.35650069    -0.15500
F941        F  0.60461373  0.21927776  0.38639540    -0.15500
F942        F  0.53187913  0.18709322  0.41645871    -0.13100
C943        C  0.53562133  0.12046056  0.52168772     0.24900
C944        C  0.49921210  0.10557517  0.54207227    -0.23200
C945        C  0.46417356  0.09058472  0.51804718     0.19800
C946        C  0.46491861  0.09169134  0.47656113     0.24800
C947        C  0.50166137  0.10539429  0.45625359    -0.23200
C948        C  0.53727252  0.11895561  0.48044928     0.19700
F949        F  0.57663538  0.12517571  0.46576989    -0.13100
F950        F  0.57310971  0.13035295  0.54057906    -0.15500
F951        F  0.42987057  0.07682732  0.45599781    -0.15500
F952        F  0.42892203  0.07349685  0.53494700    -0.13100
C953        C  0.54056067  0.83256519  0.37459037     0.24900
C954        C  0.53797114  0.87916962  0.38077526    -0.23200
C955        C  0.56652764  0.90587607  0.35852860     0.19800
C956        C  0.59590714  0.88699704  0.33350890     0.24800
C957        C  0.59732325  0.84145967  0.32811020    -0.23200
C958        C  0.57008450  0.81423859  0.34907608     0.19700
F959        F  0.57239312  0.76966779  0.34517856    -0.13100
F960        F  0.51236166  0.80440359  0.39114899    -0.15500
F961        F  0.62212542  0.91374971  0.31284796    -0.15500
F962        F  0.56412543  0.95033341  0.35632644    -0.13100
C963        C  0.45887976  0.88471457  0.33532356     0.24900
C964        C  0.46043709  0.87782578  0.37702474    -0.23200
C965        C  0.43106086  0.84680934  0.39242322     0.19800
C966        C  0.40149781  0.82518534  0.36754252     0.24800
C967        C  0.40049667  0.83278174  0.32675402    -0.23200
C968        C  0.42937542  0.86240400  0.31071309     0.19700
F969        F  0.42748992  0.87159924  0.27149486    -0.13100
F970        F  0.48584528  0.91374790  0.31826234    -0.15500
F971        F  0.37316347  0.79664185  0.38350971    -0.15500
F972        F  0.43136814  0.83495942  0.43096560    -0.13100
C973        C  0.52051477  0.85822847  0.46993406     0.24900
C974        C  0.49493714  0.88769284  0.44729575    -0.23200
C975        C  0.46573686  0.91260192  0.46927356     0.19800
C976        C  0.47261258  0.92007086  0.50941710     0.24800
C977        C  0.49861852  0.89157129  0.53261847    -0.23200
C978        C  0.51622168  0.85585045  0.51146170     0.19700
F979        F  0.53213081  0.82038770  0.53074734    -0.13100
F980        F  0.54974540  0.83181030  0.45344638    -0.15500
F981        F  0.45390429  0.95667145  0.52419497    -0.15500
F982        F  0.43363495  0.93496507  0.45127634    -0.13100
C983        C  0.46439992  0.97611401  0.38546613     0.24900
C984        C  0.49817676  0.95022920  0.40125908    -0.23200
C985        C  0.53043532  0.97310185  0.42342292     0.19800
C986        C  0.53140332  0.01898280  0.42621827     0.24800
C987        C  0.49998210  0.04509435  0.40716916    -0.23200
C988        C  0.46515900  0.02223391  0.38871490     0.19700
F989        F  0.42958975  0.04347543  0.37630730    -0.13100
F990        F  0.42772186  0.95761973  0.37079400    -0.15500
F991        F  0.56475656  0.03796367  0.44647812    -0.15500
F992        F  0.56220830  0.95056041  0.44189065    -0.13100
C993        C  0.63561528  0.54637629  0.15116238     0.24900
C994        C  0.60553258  0.54410599  0.11886971    -0.23200
C995        C  0.58211103  0.58357377  0.11146269     0.19800
C996        C  0.59537280  0.62408675  0.12771535     0.24800
C997        C  0.62958460  0.62552425  0.15445600    -0.23200
C998        C  0.64771367  0.58662368  0.16781064     0.19700
F999        F  0.67740568  0.58764652  0.19765444    -0.13100
F1000       F  0.65134979  0.51057997  0.16987415    -0.15500
F1001       F  0.57573436  0.66176420  0.11647655    -0.15500
F1002       F  0.54674341  0.58324223  0.08745052    -0.13100
C1003       C  0.59725184  0.42696964  0.13820115     0.24900
C1004       C  0.61681595  0.46053401  0.11543117    -0.23200
C1005       C  0.66138389  0.45698343  0.10886073     0.19800
C1006       C  0.68492943  0.42236533  0.12504017     0.24800
C1007       C  0.66445733  0.39032573  0.14734092    -0.23200
C1008       C  0.62071366  0.39226646  0.15277547     0.19700
F1009       F  0.60062549  0.36088860  0.17417281    -0.13100
F1010       F  0.55594044  0.42726049  0.14878979    -0.15500
F1011       F  0.72780610  0.42153948  0.12083837    -0.15500
F1012       F  0.68231895  0.48838552  0.08826069    -0.13100
C1013       C  0.61608019  0.39683845  0.84999768     0.24900
C1014       C  0.65966975  0.39007684  0.85786817    -0.23200
C1015       C  0.68017416  0.41530460  0.88772725     0.19800
C1016       C  0.65813655  0.44817265  0.90789530     0.24800
C1017       C  0.61399981  0.45592993  0.90014416    -0.23200
C1018       C  0.59348986  0.42893899  0.87064361     0.19700
F1019       F  0.55245137  0.43519077  0.85890148    -0.13100
F1020       F  0.59512192  0.37259887  0.82145860    -0.15500
F1021       F  0.68036982  0.47251427  0.93545722    -0.15500
F1022       F  0.72227275  0.40980154  0.89614866    -0.13100
C1023       C  0.60891907  0.46035261  0.98794211     0.24900
C1024       C  0.59869812  0.49803114  0.96537989    -0.23200
C1025       C  0.58949613  0.53679559  0.98674743     0.19800
C1026       C  0.59654088  0.53958440  0.02759549     0.24800
C1027       C  0.60079313  0.50112799  0.05109255    -0.23200
C1028       C  0.60919909  0.46163291  0.02918595     0.19700
F1029       F  0.61422546  0.42191929  0.04679867    -0.13100
F1030       F  0.61438508  0.42004007  0.97103359    -0.15500
F1031       F  0.60670027  0.58048417  0.04124102    -0.15500
F1032       F  0.57792568  0.57408367  0.96751820    -0.13100
C1033       C  0.39077859  0.44581227  0.15817525     0.24900
C1034       C  0.38746270  0.45419221  0.11681868    -0.23200
C1035       C  0.37215625  0.41877979  0.09209980     0.19800
C1036       C  0.35784479  0.37919152  0.10852924     0.24800
C1037       C  0.35996777  0.37292529  0.14950106    -0.23200
C1038       C  0.37778333  0.40585728  0.17395162     0.19700
F1039       F  0.37963567  0.40069031  0.21382554    -0.13100
F1040       F  0.40502355  0.47729048  0.18417952    -0.15500
F1041       F  0.34188806  0.34663731  0.08429233    -0.15500
F1042       F  0.37232577  0.42051024  0.05215634    -0.13100
C1043       C  0.32510554  0.57250470  0.15689127     0.24900
C1044       C  0.34492949  0.61440215  0.15728185    -0.23200
C1045       C  0.38542499  0.61861329  0.14154528     0.19800
C1046       C  0.40528395  0.58205488  0.12468977     0.24800
C1047       C  0.38579547  0.53925327  0.12408011    -0.23200
C1048       C  0.34429456  0.53614527  0.13964217     0.19700
F1049       F  0.32042519  0.49855233  0.13692646    -0.13100
F1050       F  0.28636008  0.56629099  0.17304656    -0.15500
F1051       F  0.44397620  0.58952491  0.10940367    -0.15500
F1052       F  0.40538870  0.65859024  0.14105914    -0.13100
C1053       C  0.47892693  0.51256131  0.13971942     0.24900
C1054       C  0.45381727  0.49155500  0.10988970    -0.23200
C1055       C  0.47477045  0.46203735  0.08423724     0.19800
C1056       C  0.51833740  0.46438556  0.08011032     0.24800
C1057       C  0.54351537  0.49337521  0.10407911    -0.23200
C1058       C  0.52315329  0.51151713  0.13790081     0.19700
F1059       F  0.54565878  0.52783891  0.16972535    -0.13100
F1060       F  0.46162088  0.53407468  0.17074234    -0.15500
F1061       F  0.53473216  0.43712739  0.05274344    -0.15500
F1062       F  0.45275266  0.43531823  0.05840641    -0.13100
C1063       C  0.33452501  0.53914100  0.89085626     0.24900
C1064       C  0.37550852  0.54603117  0.90950892    -0.23200
C1065       C  0.38883562  0.59084072  0.91411351     0.19800
C1066       C  0.36824191  0.62446802  0.89296046     0.24800
C1067       C  0.33257563  0.61454547  0.86866294    -0.23200
C1068       C  0.31489640  0.57227568  0.86915163     0.19700
F1069       F  0.27821479  0.56297201  0.84842806    -0.13100
F1070       F  0.31192899  0.50097428  0.89422332    -0.15500
F1071       F  0.38414228  0.66632150  0.89495391    -0.15500
F1072       F  0.42304512  0.60226233  0.93729833    -0.13100
C1073       C  0.36600150  0.42658005  0.92983502     0.24900
C1074       C  0.38374893  0.46269550  0.90900785    -0.23200
C1075       C  0.38556672  0.45845166  0.86736638     0.19800
C1076       C  0.36644792  0.42327128  0.84726045     0.24800
C1077       C  0.34466459  0.39003447  0.86764316    -0.23200
C1078       C  0.34541294  0.39146885  0.90920791     0.19700
F1079       F  0.32754555  0.35822343  0.92994226    -0.13100
F1080       F  0.37045720  0.42307006  0.96957916    -0.15500
F1081       F  0.36808361  0.42321368  0.80713134    -0.15500
F1082       F  0.40420492  0.49024026  0.84540627    -0.13100
C1083       C  0.47392414  0.46738029  0.93268588     0.24900
C1084       C  0.45057580  0.50330467  0.91697891    -0.23200
C1085       C  0.47433654  0.53442818  0.89537663     0.19800
C1086       C  0.51932020  0.53462450  0.89694939     0.24800
C1087       C  0.54273759  0.49884082  0.91349202    -0.23200
C1088       C  0.51799492  0.46437353  0.92944117     0.19700
F1089       F  0.53667681  0.42763112  0.94386662    -0.13100
F1090       F  0.45420969  0.43509105  0.95309375    -0.15500
F1091       F  0.53870622  0.57179217  0.88420533    -0.15500
F1092       F  0.45506058  0.56553563  0.87307425    -0.13100
C1093       C  0.43310802  0.53056207  0.99555640     0.24900
C1094       C  0.39852191  0.51249938  0.97300945    -0.23200
C1095       C  0.36023899  0.50585495  0.99383552     0.19800
C1096       C  0.36094237  0.50455007  0.03564038     0.24800
C1097       C  0.39981343  0.51022619  0.05717084    -0.23200
C1098       C  0.43343803  0.53013452  0.03616447     0.19700
F1099       F  0.46897417  0.54753066  0.05405959    -0.13100
F1100       F  0.46768505  0.54962338  0.97916688    -0.15500
F1101       F  0.32452914  0.49441261  0.05451681    -0.15500
F1102       F  0.32285347  0.49764118  0.97406094    -0.13100
C1103       C  0.10381112  0.61846518  0.57151025     0.24900
C1104       C  0.11526846  0.62480841  0.53154669    -0.23200
C1105       C  0.15345288  0.64989370  0.52626006     0.19800
C1106       C  0.17409328  0.67278630  0.55804343     0.24800
C1107       C  0.15945619  0.66937444  0.59698593    -0.23200
C1108       C  0.12477056  0.64050036  0.60305275     0.19700
F1109       F  0.11015799  0.63324982  0.63993315    -0.13100
F1110       F  0.07045875  0.59246608  0.58099868    -0.15500
F1111       F  0.20936307  0.69727248  0.55047803    -0.15500
F1112       F  0.17317445  0.65054370  0.49102026    -0.13100
C1113       C  0.11665338  0.59295470  0.42224558     0.24900
C1114       C  0.10322034  0.61945111  0.45474884    -0.23200
C1115       C  0.09934212  0.66543682  0.44720011     0.19800
C1116       C  0.11404266  0.68424366  0.41208223     0.24800
C1117       C  0.13299206  0.65795521  0.38308383    -0.23200
C1118       C  0.13303538  0.61211723  0.38815740     0.19700
F1119       F  0.14818867  0.58537311  0.35932405    -0.13100
F1120       F  0.11157221  0.54851128  0.42110515    -0.15500
F1121       F  0.11188551  0.72862540  0.40749271    -0.15500
F1122       F  0.08257662  0.69274858  0.47473916    -0.13100
C1123       C  0.83500730  0.61204811  0.44912983     0.24900
C1124       C  0.87868635  0.61935433  0.45821681    -0.23200
C1125       C  0.90104354  0.64805489  0.43227409     0.19800
C1126       C  0.88246575  0.66249509  0.39673463     0.24800
C1127       C  0.84007197  0.65168070  0.38643773    -0.23200
C1128       C  0.81641983  0.62671260  0.41361979     0.19700
F1129       F  0.77501724  0.61559241  0.40593881    -0.13100
F1130       F  0.81053105  0.58811515  0.47377059    -0.15500
F1131       F  0.90618831  0.68831086  0.37291984    -0.15500
F1132       F  0.94025619  0.66501663  0.44146012    -0.13100
C1133       C  0.97294918  0.63084678  0.52612077     0.24900
C1134       C  0.94841416  0.60665518  0.49718154    -0.23200
C1135       C  0.97122085  0.58655183  0.46630186     0.19800
C1136       C  0.01526114  0.58680478  0.46610960     0.24800
C1137       C  0.04010871  0.60954762  0.49540334    -0.23200
C1138       C  0.01748625  0.63547097  0.52298241     0.19700
F1139       F  0.03752909  0.66542142  0.54723348    -0.13100
F1140       F  0.95527907  0.64882049  0.55861605    -0.15500
F1141       F  0.03347414  0.56233356  0.43748898    -0.15500
F1142       F  0.95062630  0.56568455  0.43554777    -0.13100
C1143       C  0.09646402  0.35667409  0.43710915     0.24900
C1144       C  0.12004828  0.38161703  0.46673725    -0.23200
C1145       C  0.16506773  0.37997734  0.46331464     0.19800
C1146       C  0.18423453  0.36322234  0.42927382     0.24800
C1147       C  0.15957019  0.34487934  0.39764849    -0.23200
C1148       C  0.11558915  0.34042751  0.40291712     0.19700
F1149       F  0.09064047  0.31851679  0.37562245    -0.13100
F1150       F  0.05571903  0.34303851  0.44193547    -0.15500
F1151       F  0.22745183  0.36337510  0.42836091    -0.15500
F1152       F  0.19138075  0.39254716  0.49400401    -0.13100
C1153       C  0.14250587  0.30849129  0.57174256     0.24900
C1154       C  0.16587113  0.33116306  0.60154499    -0.23200
C1155       C  0.16796014  0.37740298  0.60048867     0.19800
C1156       C  0.14648664  0.40099999  0.57089260     0.24800
C1157       C  0.12190980  0.37878723  0.54066997    -0.23200
C1158       C  0.12090899  0.33176050  0.54184541     0.19700
F1159       F  0.09760119  0.30811045  0.51450494    -0.13100
F1160       F  0.13900167  0.26379620  0.57245860    -0.15500
F1161       F  0.15094382  0.44551968  0.57245209    -0.15500
F1162       F  0.19159219  0.40006989  0.62830218    -0.13100
C1163       C  0.06689235  0.52367740  0.52362542     0.24900
C1164       C  0.09625096  0.55031699  0.50282745    -0.23200
C1165       C  0.13442618  0.52907073  0.49291191     0.19800
C1166       C  0.13643618  0.48243879  0.49085715     0.24800
C1167       C  0.10465464  0.45524366  0.50833182    -0.23200
C1168       C  0.07448265  0.47921838  0.53045057     0.19700
F1169       F  0.05021773  0.45949419  0.55793849    -0.13100
F1170       F  0.03060376  0.53972211  0.53901704    -0.15500
F1171       F  0.17046309  0.46592557  0.47255302    -0.15500
F1172       F  0.16850585  0.55315225  0.48121066    -0.13100
C1173       C  0.85769346  0.39717293  0.56596294     0.24900
C1174       C  0.88563697  0.37554799  0.53955684    -0.23200
C1175       C  0.89013011  0.32905207  0.54454692     0.19800
C1176       C  0.86980169  0.30629587  0.57486758     0.24800
C1177       C  0.84413504  0.32870397  0.60144794    -0.23200
C1178       C  0.83843674  0.37422397  0.59680985     0.19700
F1179       F  0.81297873  0.39656833  0.62186597    -0.13100
F1180       F  0.84649236  0.43989842  0.56159207    -0.15500
F1181       F  0.87652820  0.26239969  0.57912270    -0.15500
F1182       F  0.91527839  0.30530487  0.52037112    -0.13100
C1183       C  0.90934809  0.34296576  0.44214816     0.24900
C1184       C  0.88660332  0.37263427  0.46683805    -0.23200
C1185       C  0.84173633  0.37437133  0.46000508     0.19800
C1186       C  0.82166146  0.35133787  0.42829559     0.24800
C1187       C  0.84530003  0.32484035  0.40285956    -0.23200
C1188       C  0.88911147  0.32074782  0.41022382     0.19700
F1189       F  0.91238969  0.29367899  0.38705633    -0.13100
F1190       F  0.95046325  0.33212204  0.44979050    -0.15500
F1191       F  0.77922956  0.35642054  0.42146240    -0.15500
F1192       F  0.81723549  0.39972876  0.48353161    -0.13100
C1193       C  0.88334837  0.47243473  0.46788225     0.24900
C1194       C  0.89996508  0.45019759  0.50161193    -0.23200
C1195       C  0.91664086  0.47791182  0.53257408     0.19800
C1196       C  0.91432752  0.52425957  0.53108971     0.24800
C1197       C  0.89550330  0.54646680  0.49837257    -0.23200
C1198       C  0.88082229  0.51875947  0.46643605     0.19700
F1199       F  0.86835703  0.53537828  0.43107424    -0.13100
F1200       F  0.87375441  0.45058344  0.43355255    -0.15500
F1201       F  0.93171516  0.54788420  0.56195252    -0.15500
F1202       F  0.93612649  0.45995470  0.56474498    -0.13100
C1203       C  0.98171155  0.37830457  0.53672122     0.24900
C1204       C  0.95723360  0.39485753  0.50441570    -0.23200
C1205       C  0.98049111  0.41310695  0.47298216     0.19800
C1206       C  0.02499666  0.41469563  0.47368429     0.24800
C1207       C  0.04964835  0.39488051  0.50423930    -0.23200
C1208       C  0.02642257  0.37663900  0.53599582     0.19700
F1209       F  0.04613537  0.36312484  0.56976093    -0.13100
F1210       F  0.96363397  0.36747343  0.57134659    -0.15500
F1211       F  0.04445766  0.43616508  0.44389205    -0.15500
F1212       F  0.95993710  0.43008136  0.44096148    -0.13100
C1213       C  0.85601976  0.69074344  0.56776862     0.24900
C1214       C  0.83416660  0.66668221  0.59630053    -0.23200
C1215       C  0.83010506  0.62082180  0.59088347     0.19800
C1216       C  0.84859890  0.59913814  0.55868761     0.24800
C1217       C  0.87522472  0.62213718  0.53201991    -0.23200
C1218       C  0.87604271  0.66904217  0.53620549     0.19700
F1219       F  0.89771249  0.69422098  0.51036402    -0.13100
F1220       F  0.85949448  0.73533596  0.57125356    -0.15500
F1221       F  0.83760966  0.55609104  0.55307251    -0.15500
F1222       F  0.80656522  0.59680167  0.61625401    -0.13100
C1223       C  0.63187418  0.57362986  0.83719552     0.24900
C1224       C  0.66147367  0.60250969  0.85651177    -0.23200
C1225       C  0.67039791  0.59612817  0.89690470     0.19800
C1226       C  0.64952227  0.56274944  0.91763496     0.24800
C1227       C  0.61690886  0.53593993  0.89901302    -0.23200
C1228       C  0.61094098  0.54082519  0.85772258     0.19700
F1229       F  0.58334358  0.51429371  0.83674446    -0.13100
F1230       F  0.62271978  0.57641239  0.79782593    -0.15500
F1231       F  0.66412753  0.55551957  0.95502869    -0.15500
F1232       F  0.70034964  0.62129504  0.91644260    -0.13100
C1233       C  0.62075790  0.85571198  0.60247017     0.24900
C1234       C  0.62111717  0.85469109  0.64411067    -0.23200
C1235       C  0.58570592  0.87305873  0.66309830     0.19800
C1236       C  0.54996965  0.88764985  0.64153001     0.24800
C1237       C  0.54679474  0.88407493  0.59963455    -0.23200
C1238       C  0.58521042  0.87156603  0.58065976     0.19700
F1239       F  0.59094910  0.87743530  0.54150430    -0.13100
F1240       F  0.65541554  0.84241212  0.58245108    -0.15500
F1241       F  0.51708324  0.90398579  0.66232799    -0.15500
F1242       F  0.58468825  0.87642933  0.70313885    -0.13100
C1243       C  0.61710642  0.83311225  0.89915097     0.24900
C1244       C  0.66174444  0.82919839  0.89905727    -0.23200
C1245       C  0.68567178  0.85276995  0.92803776     0.19800
C1246       C  0.66543713  0.87862664  0.95692873     0.24800
C1247       C  0.62015912  0.88009734  0.95929404    -0.23200
C1248       C  0.59661232  0.85817765  0.92825051     0.19700
F1249       F  0.55385342  0.86231155  0.92399404    -0.13100
F1250       F  0.59290187  0.81287582  0.87028272    -0.15500
F1251       F  0.69035621  0.90093468  0.98396998    -0.15500
F1252       F  0.72887138  0.85220013  0.92752003    -0.13100
C1253       C  0.88857999  0.88747365  0.64227577     0.24900
C1254       C  0.84407338  0.88518266  0.64218349    -0.23200
C1255       C  0.82027839  0.91532134  0.62035414     0.19800
C1256       C  0.84074542  0.94876933  0.60006711     0.24800
C1257       C  0.88609685  0.95192908  0.59944756    -0.23200
C1258       C  0.90955537  0.91999144  0.62111238     0.19700
F1259       F  0.95258763  0.92086588  0.62465807    -0.13100
F1260       F  0.91201797  0.85828197  0.66354990    -0.15500
F1261       F  0.81594692  0.97800616  0.58023394    -0.15500
F1262       F  0.77701683  0.91369477  0.62019515    -0.13100
C1263       C  0.90183466  0.61302433  0.85276336     0.24900
C1264       C  0.89148671  0.65772021  0.85597113    -0.23200
C1265       C  0.91984925  0.68596332  0.87716350     0.19800
C1266       C  0.95724811  0.66938909  0.89545187     0.24800
C1267       C  0.96612251  0.62337240  0.89561911    -0.23200
C1268       C  0.93866264  0.59630189  0.87103118     0.19700
F1269       F  0.94846242  0.55424505  0.86104148    -0.13100
F1270       F  0.87647757  0.58516823  0.83066694    -0.15500
F1271       F  0.98444475  0.69850251  0.91398974    -0.15500
F1272       F  0.91226553  0.72996637  0.87886728    -0.13100
loop_ 
_geom_bond_atom_site_label_1 
_geom_bond_atom_site_label_2 
_geom_bond_distance 
_geom_bond_site_symmetry_2 
_ccdc_geom_bond_type 
Zr1           O2   2.439       .  S
Zr1           O3   2.426       .  S
Zr1           O4   2.493       .  S
Zr1           O7   2.469       .  S
Zr1           O9   2.389       .  S
Zr1          O10   2.395       .  S
Zr1          O11   2.402       .  S
Zr1          O12   2.406       .  S
O2           H58   0.990       .  S
O2           H66   0.990       .  S
O3           C23   1.283       .  A
O4           C25   1.295       .  A
O5          Zr15   2.445       .  S
O5           C24   1.287       .  A
O6          Zr14   2.427       .  S
O6           C25   1.283       .  A
O7           C24   1.291       .  A
O8          Zr16   2.400       .  S
O8           C23   1.278       .  A
O9          Zr14   2.389       .  S
O9          Zr16   2.386       .  S
O10         Zr15   2.389       .  S
O10         Zr16   2.381       .  S
O10          H45   0.967       .  S
O11         Zr14   2.395       .  S
O11         Zr31   2.384       .  S
O11          H48   0.966       .  S
O12         Zr15   2.391       .  S
O12         Zr31   2.384       .  S
Zr13         O38   2.439       .  S
Zr13         O32   2.462       .  S
Zr13         O40   2.487       .  S
Zr13         O28   2.511       .  S
Zr13         O19   2.404       .  S
Zr13         O20   2.416       .  S
Zr13         O21   2.388       .  S
Zr13         O22   2.406       .  S
Zr14         O33   2.437       .  S
Zr14         O26   2.434       .  S
Zr14         O27   2.411       .  S
Zr14         O20   2.404       .  S
Zr14         O21   2.394       .  S
Zr15         O17   2.437       .  S
Zr15         O39   2.439       .  S
Zr15         O41   2.433       .  S
Zr15         O19   2.390       .  S
Zr15         O22   2.398       .  S
Zr16         O42   2.437       .  S
Zr16         O43   2.437       .  S
Zr16         O18   2.437       .  S
Zr16         O19   2.372       .  S
Zr16         O20   2.396       .  S
O17          H54   0.990       .  S
O18          H49   0.990       .  S
O18          H63   0.990       .  S
O20          H46   0.967       .  S
O21         Zr31   2.380       .  S
O22         Zr31   2.382       .  S
O22          H47   0.972       .  S
C23        C1254   1.459       .  S
C24        C1214   1.497       .  S
C25        C1234   1.515       .  S
O26          H62   0.989       .  S
O27          C29   1.281       .  A
O28          C29   1.298       .  A
C29        C1244   1.500       .  S
O30         Zr31   2.435       .  S
O30          H59   0.990       .  S
Zr31         O34   2.437       .  S
Zr31         O35   2.439       .  S
Zr31         O36   2.380       .  S
O32          C37   1.288       .  A
O33          H50   0.990       .  S
O33          H65   0.990       .  S
O34          H51   0.990       .  S
O35          H55   0.990       .  S
O35          H64   0.990       .  S
O36          C37   1.273       .  A
C37        C1224   1.491       .  S
O38          H57   0.990       .  S
O38          H61   0.990       .  S
O39          H53   0.990       .  S
O39          H60   0.990       .  S
O40          C44   1.294       .  A
O41          C44   1.285       .  A
O42          H52   0.990       .  S
O43          H56   0.991       .  S
C44        C1264   1.494       .  S
C67        C1174   1.579       .  S
C67        C1184   1.575       .  S
C67        C1194   1.588       .  S
C67        C1204   1.574       .  S
C68        C1144   1.590       .  S
C68        C1157   1.568       .  S
C68        C1167   1.599       .  S
C68        C1207   1.583       .  S
C69        C1124   1.575       .  S
C69        C1134   1.567       .  S
C69        C1197   1.593       .  S
C69        C1217   1.582       .  S
C70        C1104   1.584       .  S
C70        C1114   1.585       .  S
C70        C1137   1.568       .  S
C70        C1164   1.579       .  S
C71        C1064   1.575       .  S
C71        C1074   1.559       .  S
C71        C1084   1.583       .  S
C71        C1094   1.558       .  S
C72        C1034   1.564       .  S
C72        C1047   1.562       .  S
C72        C1054   1.546       .  S
C72        C1097   1.565       .  S
C73        C1017   1.566       .  S
C73        C1024   1.560       .  S
C73        C1087   1.582       .  S
C73        C1227   1.564       .  S
C74         C994   1.566       .  S
C74        C1004   1.554       .  S
C74        C1027   1.595       .  S
C74        C1057   1.556       .  S
C75         C954   1.569       .  S
C75         C964   1.555       .  S
C75         C974   1.578       .  S
C75         C984   1.572       .  S
C76         C927   1.575       .  S
C76         C934   1.557       .  S
C76         C947   1.577       .  S
C76         C987   1.564       .  S
C77         C904   1.596       .  S
C77         C914   1.575       .  S
C77         C977   1.575       .  S
C77        C1237   1.595       .  S
C78         C887   1.577       .  S
C78         C894   1.575       .  S
C78         C917   1.581       .  S
C78         C944   1.576       .  S
Zr79         O80   2.439       .  S
Zr79         O81   2.422       .  S
Zr79         O82   2.483       .  S
Zr79         O85   2.464       .  S
Zr79         O87   2.386       .  S
Zr79         O88   2.394       .  S
Zr79         O89   2.399       .  S
Zr79         O90   2.402       .  S
O80         H136   0.990       .  S
O80         H144   0.990       .  S
O81         C101   1.281       .  A
O82         C103   1.293       .  A
O83         Zr93   2.422       .  S
O83         C102   1.283       .  A
O84         Zr92   2.413       .  S
O84         C103   1.281       .  A
O85         C102   1.290       .  A
O86         Zr94   2.407       .  S
O86         C101   1.280       .  A
O87         Zr92   2.389       .  S
O87         Zr94   2.380       .  S
O88         Zr93   2.384       .  S
O88         Zr94   2.377       .  S
O88         H123   0.965       .  S
O89         Zr92   2.394       .  S
O89        Zr109   2.381       .  S
O89         H126   0.965       .  S
O90         Zr93   2.383       .  S
O90        Zr109   2.378       .  S
Zr91        O116   2.439       .  S
Zr91        O110   2.454       .  S
Zr91        O118   2.483       .  S
Zr91        O106   2.493       .  S
Zr91         O97   2.410       .  S
Zr91         O98   2.413       .  S
Zr91         O99   2.386       .  S
Zr91        O100   2.398       .  S
Zr92        O111   2.437       .  S
Zr92        O104   2.434       .  S
Zr92        O105   2.410       .  S
Zr92         O98   2.405       .  S
Zr92         O99   2.384       .  S
Zr93         O95   2.435       .  S
Zr93        O117   2.440       .  S
Zr93        O119   2.418       .  S
Zr93         O97   2.395       .  S
Zr93        O100   2.393       .  S
Zr94        O120   2.437       .  S
Zr94        O121   2.434       .  S
Zr94         O96   2.438       .  S
Zr94         O97   2.391       .  S
Zr94         O98   2.388       .  S
O95         H132   0.991       .  S
O96         H127   0.990       .  S
O96         H141   0.990       .  S
O98         H124   0.963       .  S
O99        Zr109   2.373       .  S
O100       Zr109   2.378       .  S
O100        H125   0.976       .  S
C101        C874   1.459       .  S
C102       C1154   1.484       .  S
C103        C897   1.503       .  S
O104        H140   0.990       .  S
O105        C107   1.282       .  A
O106        C107   1.295       .  A
C107        C854   1.498       .  S
O108       Zr109   2.434       .  S
O108        H137   0.990       .  S
Zr109       O112   2.436       .  S
Zr109       O113   2.439       .  S
Zr109       O114   2.392       .  S
O110        C115   1.286       .  A
O111        H128   0.990       .  S
O111        H143   0.990       .  S
O112        H129   0.990       .  S
O113        H133   0.990       .  S
O113        H142   0.990       .  S
O114        C115   1.276       .  A
C115       C1077   1.482       .  S
O116        H135   0.990       .  S
O116        H139   0.990       .  S
O117        H131   0.990       .  S
O117        H138   0.990       .  S
O118        C122   1.294       .  A
O119        C122   1.282       .  A
O120        H130   0.990       .  S
O121        H134   0.990       .  S
C122        C867   1.507       .  S
Zr145       O146   2.441       .  S
Zr145       O147   2.469       .  S
Zr145       O148   2.428       .  S
Zr145       O151   2.439       .  S
Zr145       O153   2.391       .  S
Zr145       O154   2.376       .  S
Zr145       O155   2.444       .  S
Zr145       O156   2.408       .  S
O146        H202   0.991       .  S
O146        H210   0.990       .  S
O147        C167   1.288       .  A
O148        C169   1.276       .  A
O149       Zr159   2.383       .  S
O149        C168   1.275       .  A
O150       Zr158   2.386       .  S
O150        C169   1.267       .  A
O151        C168   1.285       .  A
O152       Zr160   2.423       .  S
O152        C167   1.281       .  A
O153       Zr158   2.410       .  S
O153       Zr160   2.372       .  S
O154       Zr159   2.384       .  S
O154       Zr160   2.368       .  S
O154        H189   0.981       .  S
O155       Zr158   2.396       .  S
O155       Zr175   2.397       .  S
O155        H192   0.963       .  S
O156       Zr159   2.374       .  S
O156       Zr175   2.390       .  S
Zr157       O182   2.441       .  S
Zr157       O176   2.467       .  S
Zr157       O184   2.469       .  S
Zr157       O172   2.472       .  S
Zr157       O163   2.414       .  S
Zr157       O164   2.415       .  S
Zr157       O165   2.386       .  S
Zr157       O166   2.391       .  S
Zr158       O177   2.439       .  S
Zr158       O170   2.435       .  S
Zr158       O171   2.396       .  S
Zr158       O164   2.403       .  S
Zr158       O165   2.382       .  S
Zr159       O161   2.437       .  S
Zr159       O183   2.441       .  S
Zr159       O185   2.359       .  S
Zr159       O163   2.391       .  S
Zr159       O166   2.391       .  S
Zr160       O186   2.434       .  S
Zr160       O187   2.433       .  S
Zr160       O162   2.440       .  S
Zr160       O163   2.398       .  S
Zr160       O164   2.387       .  S
O161        H198   0.990       .  S
O162        H193   0.990       .  S
O162        H207   0.990       .  S
O164        H190   0.964       .  S
O165       Zr175   2.383       .  S
O166       Zr175   2.377       .  S
O166        H191   0.958       .  S
C167       C1117   1.491       .  S
C168        C824   1.448       .  S
C169        C847   1.470       .  S
O170        H206   0.990       .  S
O171        C173   1.277       .  A
O172        C173   1.291       .  A
C173       C1044   1.480       .  S
O174       Zr175   2.434       .  S
O174        H203   0.990       .  S
Zr175       O178   2.436       .  S
Zr175       O179   2.437       .  S
Zr175       O180   2.412       .  S
O176        C181   1.289       .  A
O177        H194   0.990       .  S
O177        H209   0.990       .  S
O178        H195   0.990       .  S
O179        H199   0.990       .  S
O179        H208   0.989       .  S
O180        C181   1.280       .  A
C181        C837   1.500       .  S
O182        H201   0.990       .  S
O182        H205   0.990       .  S
O183        H197   0.990       .  S
O183        H204   0.990       .  S
O184        C188   1.289       .  A
O185        C188   1.272       .  A
O186        H196   0.990       .  S
O187        H200   0.990       .  S
C188        C967   1.457       .  S
Zr211       O212   2.441       .  S
Zr211       O213   2.424       .  S
Zr211       O214   2.445       .  S
Zr211       O217   2.459       .  S
Zr211       O219   2.391       .  S
Zr211       O220   2.386       .  S
Zr211       O221   2.408       .  S
Zr211       O222   2.394       .  S
O212        H268   0.990       .  S
O212        H276   0.990       .  S
O213        C233   1.280       .  A
O214        C235   1.284       .  A
O215       Zr225   2.422       .  S
O215        C234   1.282       .  A
O216       Zr224   2.395       .  S
O216        C235   1.277       .  A
O217        C234   1.288       .  A
O218       Zr226   2.374       .  S
O218        C233   1.273       .  A
O219       Zr224   2.394       .  S
O219       Zr226   2.379       .  S
O220       Zr225   2.380       .  S
O220       Zr226   2.384       .  S
O220        H255   0.961       .  S
O221       Zr224   2.406       .  S
O221       Zr241   2.377       .  S
O221        H258   0.961       .  S
O222       Zr225   2.387       .  S
O222       Zr241   2.384       .  S
Zr223       O248   2.440       .  S
Zr223       O242   2.423       .  S
Zr223       O250   2.432       .  S
Zr223       O238   2.471       .  S
Zr223       O229   2.399       .  S
Zr223       O230   2.394       .  S
Zr223       O231   2.381       .  S
Zr223       O232   2.395       .  S
Zr224       O243   2.436       .  S
Zr224       O236   2.436       .  S
Zr224       O237   2.428       .  S
Zr224       O230   2.393       .  S
Zr224       O231   2.385       .  S
Zr225       O227   2.435       .  S
Zr225       O249   2.437       .  S
Zr225       O251   2.404       .  S
Zr225       O229   2.394       .  S
Zr225       O232   2.387       .  S
Zr226       O252   2.436       .  S
Zr226       O253   2.435       .  S
Zr226       O228   2.438       .  S
Zr226       O229   2.378       .  S
Zr226       O230   2.379       .  S
O227        H264   0.990       .  S
O228        H259   0.990       .  S
O228        H273   0.990       .  S
O230        H256   0.962       .  S
O231       Zr241   2.383       .  S
O232       Zr241   2.371       .  S
O232        H257   0.969       .  S
C233        C817   1.441       .  S
C234       C1187   1.482       .  S
C235        C937   1.457       .  S
O236        H272   0.991       .  S
O237        C239   1.283       .  A
O238        C239   1.292       .  A
C239        C807   1.505       .  S
O240       Zr241   2.436       .  S
O240        H269   0.990       .  S
Zr241       O244   2.435       .  S
Zr241       O245   2.437       .  S
Zr241       O246   2.390       .  S
O242        C247   1.280       .  A
O243        H260   0.990       .  S
O243        H275   0.989       .  S
O244        H261   0.990       .  S
O245        H265   0.990       .  S
O245        H274   0.990       .  S
O246        C247   1.278       .  A
C247       C1007   1.452       .  S
O248        H267   0.991       .  S
O248        H271   0.990       .  S
O249        H263   0.990       .  S
O249        H270   0.990       .  S
O250        C254   1.284       .  A
O251        C254   1.279       .  A
O252        H262   0.990       .  S
O253        H266   0.990       .  S
C254        C794   1.457       .  S
Zr277       O278   2.440       .  S
Zr277       O279   2.455       .  S
Zr277       O280   2.474       .  S
Zr277       O283   2.474       .  S
Zr277       O285   2.393       .  S
Zr277       O286   2.388       .  S
Zr277       O287   2.413       .  S
Zr277       O288   2.406       .  S
O278        H334   0.990       .  S
O278        H342   0.990       .  S
O279        C299   1.287       .  A
O280        C301   1.291       .  A
O281       Zr291   2.398       .  S
O281        C300   1.277       .  A
O282       Zr290   2.408       .  S
O282        C301   1.279       .  A
O283        C300   1.292       .  A
O284       Zr292   2.412       .  S
O284        C299   1.280       .  A
O285       Zr290   2.396       .  S
O285       Zr292   2.380       .  S
O286       Zr291   2.387       .  S
O286       Zr292   2.378       .  S
O286        H321   0.964       .  S
O287       Zr290   2.404       .  S
O287       Zr307   2.375       .  S
O287        H324   0.965       .  S
O288       Zr291   2.389       .  S
O288       Zr307   2.393       .  S
Zr289       O314   2.438       .  S
Zr289       O308   2.459       .  S
Zr289       O316   2.487       .  S
Zr289       O304   2.485       .  S
Zr289       O295   2.404       .  S
Zr289       O296   2.418       .  S
Zr289       O297   2.388       .  S
Zr289       O298   2.385       .  S
Zr290       O309   2.439       .  S
Zr290       O302   2.435       .  S
Zr290       O303   2.416       .  S
Zr290       O296   2.397       .  S
Zr290       O297   2.396       .  S
Zr291       O293   2.437       .  S
Zr291       O315   2.439       .  S
Zr291       O317   2.393       .  S
Zr291       O295   2.389       .  S
Zr291       O298   2.383       .  S
Zr292       O318   2.434       .  S
Zr292       O319   2.436       .  S
Zr292       O294   2.438       .  S
Zr292       O295   2.392       .  S
Zr292       O296   2.392       .  S
O293        H330   0.990       .  S
O294        H325   0.990       .  S
O294        H339   0.990       .  S
O296        H322   0.968       .  S
O297       Zr307   2.382       .  S
O298       Zr307   2.381       .  S
O298        H323   0.978       .  S
C299       C1014   1.484       .  S
C300        C774   1.476       .  S
C301        C767   1.473       .  S
O302        H338   0.990       .  S
O303        C305   1.281       .  A
O304        C305   1.293       .  A
C305       C1177   1.484       .  S
O306       Zr307   2.440       .  S
O306        H335   0.991       .  S
Zr307       O310   2.438       .  S
Zr307       O311   2.442       .  S
Zr307       O312   2.379       .  S
O308        C313   1.288       .  A
O309        H326   0.990       .  S
O309        H341   0.990       .  S
O310        H327   0.990       .  S
O311        H331   0.990       .  S
O311        H340   0.989       .  S
O312        C313   1.273       .  A
C313        C784   1.488       .  S
O314        H333   0.990       .  S
O314        H337   0.990       .  S
O315        H329   0.990       .  S
O315        H336   0.990       .  S
O316        C320   1.294       .  A
O317        C320   1.277       .  A
O318        H328   0.990       .  S
O319        H332   0.990       .  S
C320        C884   1.483       .  S
C343        C734   1.572   1_556  S
C343        C747   1.587       .  S
C343        C754   1.596       .  S
C343       C1247   1.582       .  S
C344        C724   1.598       .  S
C344        C757   1.613       .  S
C344        C777   1.563       .  S
C344        C804   1.585   1_556  S
C345        C704   1.573   1_554  S
C345        C714   1.584       .  S
C345        C744   1.588   1_554  S
C345        C834   1.570       .  S
C346        C694   1.578       .  S
C346        C717   1.586       .  S
C346        C727   1.583   1_554  S
C346        C857   1.590   1_554  S
Zr347       O348   2.440       .  S
Zr347       O349   2.431       .  S
Zr347       O350   2.488       .  S
Zr347       O353   2.454       .  S
Zr347       O355   2.385       .  S
Zr347       O356   2.394       .  S
Zr347       O357   2.402       .  S
Zr347       O358   2.403       .  S
O348        H404   0.991       .  S
O348        H412   0.990       .  S
O349        C369   1.282       .  A
O350        C371   1.295       .  A
O351       Zr361   2.429       .  S
O351        C370   1.285       .  A
O352       Zr360   2.417       .  S
O352        C371   1.282       .  A
O353        C370   1.290       .  A
O354       Zr362   2.429       .  S
O354        C369   1.283       .  A
O355       Zr360   2.392       .  S
O355       Zr362   2.375       .  S
O356       Zr361   2.391       .  S
O356       Zr362   2.368       .  S
O356        H391   0.964       .  S
O357       Zr360   2.402       .  S
O357       Zr377   2.383       .  S
O357        H394   0.966       .  S
O358       Zr361   2.398       .  S
O358       Zr377   2.381       .  S
Zr359       O384   2.441       .  S
Zr359       O378   2.470       .  S
Zr359       O386   2.460       .  S
Zr359       O374   2.482       .  S
Zr359       O365   2.413       .  S
Zr359       O366   2.419       .  S
Zr359       O367   2.382       .  S
Zr359       O368   2.394       .  S
Zr360       O379   2.436       .  S
Zr360       O372   2.435       .  S
Zr360       O373   2.426       .  S
Zr360       O366   2.396       .  S
Zr360       O367   2.390       .  S
Zr361       O363   2.434       .  S
Zr361       O385   2.440       .  S
Zr361       O387   2.435       .  S
Zr361       O365   2.386       .  S
Zr361       O368   2.401       .  S
Zr362       O388   2.437       .  S
Zr362       O389   2.435       .  S
Zr362       O364   2.438       .  S
Zr362       O365   2.395       .  S
Zr362       O366   2.400       .  S
O363        H400   0.990       .  S
O364        H395   0.990       .  S
O364        H409   0.990       .  S
O366        H392   0.963       .  S
O367       Zr377   2.387       .  S
O368       Zr377   2.390       .  S
O368        H393   0.958       .  S
C369       C1067   1.467       .  S
C370        C707   1.493       .  S
C371        C684   1.506       .  S
O372        H408   0.990       .  S
O373        C375   1.284       .  A
O374        C375   1.291       .  A
C375       C1107   1.510       .  S
O376       Zr377   2.435       .  S
O376        H405   0.990       .  S
Zr377       O380   2.435       .  S
Zr377       O381   2.441       .  S
Zr377       O382   2.380       .  S
O378        C383   1.290       .  A
O379        H396   0.990       .  S
O379        H411   0.990       .  S
O380        H397   0.990       .  S
O381        H401   0.990       .  S
O381        H410   0.988       .  S
O382        C383   1.273       .  A
C383        C674   1.474       .  S
O384        H403   0.990       .  S
O384        H407   0.990       .  S
O385        H399   0.990       .  S
O385        H406   0.990       .  S
O386        C390   1.289       .  A
O387        C390   1.285       .  A
O388        H398   0.990       .  S
O389        H402   0.990       .  S
C390        C907   1.489       .  S
C413        C654   1.559       .  S
C413        C664   1.591       .  S
C413        C787   1.577   1_565  S
C413       C1257   1.556       .  S
C414        C647   1.560       .  S
C414        C667   1.592   1_545  S
C414        C677   1.595   1_545  S
C414        C877   1.588       .  S
C415        C624   1.558       .  S
C415        C634   1.547       .  S
C415        C657   1.562       .  S
C415        C814   1.542   1_565  S
C416        C617   1.561       .  S
C416        C637   1.559       .  S
C416        C644   1.561       .  S
C416        C827   1.561   1_545  S
Zr417       O418   2.443       .  S
Zr417       O419   2.452       .  S
Zr417       O420   2.467       .  S
Zr417       O423   2.429       .  S
Zr417       O425   2.374       .  S
Zr417       O426   2.394       .  S
Zr417       O427   2.407       .  S
Zr417       O428   2.414       .  S
O418        H474   0.991       .  S
O418        H482   0.990       .  S
O419        C439   1.285       .  A
O420        C441   1.288       .  A
O421       Zr431   2.407       .  S
O421        C440   1.276       .  A
O422       Zr430   2.371       .  S
O422        C441   1.272       .  A
O423        C440   1.282       .  A
O424       Zr432   2.422       .  S
O424        C439   1.281       .  A
O425       Zr430   2.392       .  S
O425       Zr432   2.384       .  S
O426       Zr431   2.378       .  S
O426       Zr432   2.363       .  S
O426        H461   0.968       .  S
O427       Zr430   2.393       .  S
O427       Zr447   2.398       .  S
O427        H464   0.969       .  S
O428       Zr431   2.384       .  S
O428       Zr447   2.377       .  S
Zr429       O454   2.440       .  S
Zr429       O448   2.475       .  S
Zr429       O456   2.471       .  S
Zr429       O444   2.447       .  S
Zr429       O435   2.418       .  S
Zr429       O436   2.417       .  S
Zr429       O437   2.371       .  S
Zr429       O438   2.386       .  S
Zr430       O449   2.435       .  S
Zr430       O442   2.435       .  S
Zr430       O443   2.395       .  S
Zr430       O436   2.386       .  S
Zr430       O437   2.375       .  S
Zr431       O433   2.434       .  S
Zr431       O455   2.440       .  S
Zr431       O457   2.383       .  S
Zr431       O435   2.388       .  S
Zr431       O438   2.393       .  S
Zr432       O458   2.438       .  S
Zr432       O459   2.434       .  S
Zr432       O434   2.435       .  S
Zr432       O435   2.401       .  S
Zr432       O436   2.382       .  S
O433        H470   0.990       .  S
O434        H465   0.990       .  S
O434        H479   0.989       .  S
O436        H462   0.964       .  S
O437       Zr447   2.376       .  S
O438       Zr447   2.380       .  S
O438        H463   0.975       .  S
C439        C737   1.471       .  S
C440        C997   1.443       .  S
C441        C957   1.457       .  S
O442        H478   0.990       .  S
O443        C445   1.276       .  A
O444        C445   1.286       .  A
C445        C627   1.452       .  S
O446       Zr447   2.436       .  S
O446        H475   0.990       .  S
Zr447       O450   2.437       .  S
Zr447       O451   2.442       .  S
Zr447       O452   2.397       .  S
O448        C453   1.292       .  A
O449        H466   0.991       .  S
O449        H481   0.990       .  S
O450        H467   0.990       .  S
O451        H471   0.990       .  S
O451        H480   0.990       .  S
O452        C453   1.276       .  A
C453       C1127   1.499       .  S
O454        H473   0.990       .  S
O454        H477   0.990       .  S
O455        H469   0.990       .  S
O455        H476   0.990       .  S
O456        C460   1.292       .  A
O457        C460   1.275       .  A
O458        H468   0.990       .  S
O459        H472   0.990       .  S
C460        C604   1.492       .  S
C483        C587   1.583       .  S
C483        C594   1.579       .  S
C483        C687   1.575       .  S
C483       C1267   1.585   1_455  S
C484        C574   1.567   1_455  S
C484        C597   1.575       .  S
C484        C607   1.578   1_455  S
C484        C844   1.556       .  S
C485        C564   1.571       .  S
C485        C584   1.580       .  S
C485        C764   1.571   1_455  S
C485        C864   1.577       .  S
C486        C554   1.587   1_655  S
C486        C567   1.577       .  S
C486        C577   1.580       .  S
C486        C797   1.559       .  S
Zr487       O488   2.439       .  S
Zr487       O489   2.462       .  S
Zr487       O490   2.505       .  S
Zr487       O493   2.455       .  S
Zr487       O495   2.383       .  S
Zr487       O496   2.394       .  S
Zr487       O497   2.407       .  S
Zr487       O498   2.414       .  S
O488        H544   0.990       .  S
O488        H552   0.990       .  S
O489        C509   1.288       .  A
O490        C511   1.297       .  A
O491       Zr501   2.401       .  S
O491        C510   1.278       .  A
O492       Zr500   2.393       .  S
O492        C511   1.277       .  A
O493        C510   1.289       .  A
O494       Zr502   2.420       .  S
O494        C509   1.282       .  A
O495       Zr500   2.398       .  S
O495       Zr502   2.383       .  S
O496       Zr501   2.389       .  S
O496       Zr502   2.368       .  S
O496        H531   0.968       .  S
O497       Zr500   2.393       .  S
O497       Zr517   2.391       .  S
O497        H534   0.966       .  S
O498       Zr501   2.392       .  S
O498       Zr517   2.389       .  S
Zr499       O524   2.440       .  S
Zr499       O518   2.467       .  S
Zr499       O526   2.483       .  S
Zr499       O514   2.453       .  S
Zr499       O505   2.411       .  S
Zr499       O506   2.434       .  S
Zr499       O507   2.381       .  S
Zr499       O508   2.389       .  S
Zr500       O519   2.437       .  S
Zr500       O512   2.435       .  S
Zr500       O513   2.417       .  S
Zr500       O506   2.396       .  S
Zr500       O507   2.377       .  S
Zr501       O503   2.435       .  S
Zr501       O525   2.440       .  S
Zr501       O527   2.403       .  S
Zr501       O505   2.385       .  S
Zr501       O508   2.394       .  S
Zr502       O528   2.437       .  S
Zr502       O529   2.436       .  S
Zr502       O504   2.440       .  S
Zr502       O505   2.402       .  S
Zr502       O506   2.387       .  S
O503        H540   0.990       .  S
O504        H535   0.990       .  S
O504        H549   0.990       .  S
O506        H532   0.967       .  S
O507       Zr517   2.373       .  S
O508       Zr517   2.385       .  S
O508        H533   0.974       .  S
C509        C697   1.497       .  S
C510       C1037   1.464       .  S
C511        C924   1.487       .  S
O512        H548   0.990       .  S
O513        C515   1.279       .  A
O514        C515   1.286       .  A
C515        C614   1.486       .  S
O516       Zr517   2.436       .  S
O516        H545   0.990       .  S
Zr517       O520   2.437       .  S
Zr517       O521   2.436       .  S
Zr517       O522   2.413       .  S
O518        C523   1.290       .  A
O519        H536   0.991       .  S
O519        H551   0.989       .  S
O520        H537   0.989       .  S
O521        H541   0.991       .  S
O521        H550   0.990       .  S
O522        C523   1.280       .  A
C523       C1147   1.501       .  S
O524        H543   0.990       .  S
O524        H547   0.990       .  S
O525        H539   0.990       .  S
O525        H546   0.990       .  S
O526        C530   1.293       .  A
O527        C530   1.279       .  A
O528        H538   0.990       .  S
O529        H542   0.990       .  S
C530        C557   1.490       .  S
C553        C554   1.426       .  A
C553        C558   1.398       .  A
C553        F560   1.354       .  S
C554        C555   1.431       .  A
C555        C556   1.409       .  A
C555        F562   1.359   1_455  S
C556        C557   1.400       .  A
C556        F561   1.357       .  S
C557        C558   1.402       .  A
C558        F559   1.359       .  S
C563        C564   1.423   1_655  A
C563        C568   1.400   1_556  A
C563        F570   1.356       .  S
C564        C565   1.415       .  A
C565        C566   1.398   1_556  A
C565        F572   1.356       .  S
C566        C567   1.418   1_455  A
C566        F571   1.358       .  S
C567        C568   1.425       .  A
C568        F569   1.355       .  S
C573        C574   1.417       .  A
C573        C578   1.392       .  A
C573        F580   1.355       .  S
C574        C575   1.415   1_655  A
C575        C576   1.400       .  A
C575        F582   1.354       .  S
C576        C577   1.419   1_455  A
C576        F581   1.348       .  S
C577        C578   1.426       .  A
C578        F579   1.356       .  S
C583        C584   1.420   1_655  A
C583        C588   1.403       .  A
C583        F590   1.357       .  S
C584        C585   1.420       .  A
C585        C586   1.403       .  A
C585        F592   1.356       .  S
C586        C587   1.423       .  A
C586        F591   1.355       .  S
C587        C588   1.419   1_455  A
C588        F589   1.358       .  S
C593        C594   1.426   1_655  A
C593        C598   1.411   1_556  A
C593        F600   1.351       .  S
C594        C595   1.417       .  A
C595        C596   1.393   1_556  A
C595        F602   1.356       .  S
C596        C597   1.416       .  A
C596        F601   1.354       .  S
C597        C598   1.415   1_455  A
C598        F599   1.354       .  S
C603        C604   1.414       .  A
C603        C608   1.399       .  A
C603        F610   1.358       .  S
C604        C605   1.397       .  A
C605        C606   1.396       .  A
C605        F612   1.358       .  S
C606        C607   1.435       .  A
C606        F611   1.355   1_655  S
C607        C608   1.413       .  A
C608        F609   1.352       .  S
C613        C614   1.405       .  A
C613        C618   1.406       .  A
C613        F620   1.358       .  S
C614        C615   1.407       .  A
C615        C616   1.386       .  A
C615        F622   1.358       .  S
C616        C617   1.418       .  A
C616        F621   1.359       .  S
C617        C618   1.424       .  A
C618        F619   1.353       .  S
C623        C624   1.429       .  A
C623        C628   1.397       .  A
C623        F630   1.352       .  S
C624        C625   1.423       .  A
C625        C626   1.389       .  A
C625        F632   1.356       .  S
C626        C627   1.395       .  A
C626        F631   1.359       .  S
C627        C628   1.391       .  A
C628        F629   1.358       .  S
C633        C634   1.399       .  A
C633        C638   1.361   1_655  A
C633        F640   1.354       .  S
C634        C635   1.420       .  A
C635        C636   1.406   1_655  A
C635        F642   1.354       .  S
C636        C637   1.417   1_565  A
C636        F641   1.358   1_565  S
C637        C638   1.421   1_545  A
C638        F639   1.346       .  S
C643        C644   1.413   1_565  A
C643        C648   1.404       .  A
C643        F650   1.355       .  S
C644        C645   1.415       .  A
C645        C646   1.383       .  A
C645        F652   1.357       .  S
C646        C647   1.415       .  A
C646        F651   1.353       .  S
C647        C648   1.424   1_545  A
C648        F649   1.354       .  S
C653        C654   1.409   1_545  A
C653        C658   1.384       .  A
C653        F660   1.360       .  S
C654        C655   1.431       .  A
C655        C656   1.397       .  A
C655        F662   1.354       .  S
C656        C657   1.406       .  A
C656        F661   1.357       .  S
C657        C658   1.421   1_565  A
C658        F659   1.352       .  S
C663        C664   1.423   1_545  A
C663        C668   1.403   1_655  A
C663        F670   1.350       .  S
C664        C665   1.423       .  A
C665        C666   1.411   1_655  A
C665        F672   1.357       .  S
C666        C667   1.419       .  A
C666        F671   1.355       .  S
C667        C668   1.416   1_565  A
C668        F669   1.358       .  S
C673        C674   1.397       .  A
C673        C678   1.397       .  A
C673        F680   1.359       .  S
C674        C675   1.388       .  A
C675        C676   1.399       .  A
C675        F682   1.359       .  S
C676        C677   1.437       .  A
C676        F681   1.345       .  S
C677        C678   1.435       .  A
C678        F679   1.353       .  S
C683        C684   1.412       .  A
C683        C688   1.400       .  A
C683        F690   1.358       .  S
C684        C685   1.408       .  A
C685        C686   1.411       .  A
C685        F692   1.357       .  S
C686        C687   1.426       .  A
C686        F691   1.356       .  S
C687        C688   1.418       .  A
C688        F689   1.356       .  S
C693        C694   1.430       .  A
C693        C698   1.409       .  A
C693        F700   1.354       .  S
C694        C695   1.420       .  A
C695        C696   1.395       .  A
C695        F702   1.356       .  S
C696        C697   1.406       .  A
C696        F701   1.358       .  S
C697        C698   1.405       .  A
C698        F699   1.358       .  S
C703        C704   1.429       .  A
C703        C708   1.401       .  A
C703        F710   1.357   1_556  S
C704        C705   1.419       .  A
C705        C706   1.402       .  A
C705        F712   1.352       .  S
C706        C707   1.407       .  A
C706        F711   1.358       .  S
C707        C708   1.402       .  A
C708        F709   1.358       .  S
C713        C714   1.417       .  A
C713        C718   1.394   1_565  A
C713        F720   1.357       .  S
C714        C715   1.420   1_554  A
C715        C716   1.418   1_565  A
C715        F722   1.356       .  S
C716        C717   1.425   1_556  A
C716        F721   1.355       .  S
C717        C718   1.417       .  A
C718        F719   1.352       .  S
C723        C724   1.436   1_554  A
C723        C728   1.419       .  A
C723        F730   1.356       .  S
C724        C725   1.414       .  A
C725        C726   1.394       .  A
C725        F732   1.343       .  S
C726        C727   1.411       .  A
C726        F731   1.341       .  S
C727        C728   1.414   1_556  A
C728        F729   1.356       .  S
C733        C734   1.425       .  A
C733        C738   1.409       .  A
C733        F740   1.358       .  S
C734        C735   1.427       .  A
C735        C736   1.391       .  A
C735        F742   1.356       .  S
C736        C737   1.394       .  A
C736        F741   1.359       .  S
C737        C738   1.401       .  A
C738        F739   1.357       .  S
C743        C744   1.409       .  A
C743        C748   1.377       .  A
C743        F750   1.341       .  S
C744        C745   1.419   1_556  A
C745        C746   1.428       .  A
C745        F752   1.356       .  S
C746        C747   1.433   1_554  A
C746        F751   1.356       .  S
C747        C748   1.411       .  A
C748        F749   1.348       .  S
C753        C754   1.423   1_554  A
C753        C758   1.418   1_565  A
C753        F760   1.355       .  S
C754        C755   1.421       .  A
C755        C756   1.411   1_565  A
C755        F762   1.356       .  S
C756        C757   1.427       .  A
C756        F761   1.359       .  S
C757        C758   1.426   1_556  A
C758        F759   1.354       .  S
C763        C764   1.424       .  A
C763        C768   1.402       .  A
C763        F770   1.357       .  S
C764        C765   1.426       .  A
C765        C766   1.399       .  A
C765        F772   1.354       .  S
C766        C767   1.398       .  A
C766        F771   1.359       .  S
C767        C768   1.400       .  A
C768        F769   1.358       .  S
C773        C774   1.402       .  A
C773        C778   1.401       .  A
C773        F780   1.359       .  S
C774        C775   1.398       .  A
C775        C776   1.401       .  A
C775        F782   1.358       .  S
C776        C777   1.426       .  A
C776        F781   1.358       .  S
C777        C778   1.425       .  A
C778        F779   1.354       .  S
C783        C784   1.410       .  A
C783        C788   1.392       .  A
C783        F790   1.359       .  S
C784        C785   1.400       .  A
C785        C786   1.398       .  A
C785        F792   1.358       .  S
C786        C787   1.433       .  A
C786        F791   1.353       .  S
C787        C788   1.420       .  A
C788        F789   1.359       .  S
C793        C794   1.395       .  A
C793        C798   1.393       .  A
C793        F800   1.358       .  S
C794        C795   1.394       .  A
C795        C796   1.394       .  A
C795        F802   1.359       .  S
C796        C797   1.429       .  A
C796        F801   1.354       .  S
C797        C798   1.422       .  A
C798        F799   1.358       .  S
C803        C804   1.432       .  A
C803        C808   1.397       .  A
C803        F810   1.355   1_554  S
C804        C805   1.422       .  A
C805        C806   1.411       .  A
C805        F812   1.359       .  S
C806        C807   1.414       .  A
C806        F811   1.357       .  S
C807        C808   1.402       .  A
C808        F809   1.358       .  S
C813        C814   1.422       .  A
C813        C818   1.391       .  A
C813        F820   1.357   1_545  S
C814        C815   1.423       .  A
C815        C816   1.384       .  A
C815        F822   1.354       .  S
C816        C817   1.392       .  A
C816        F821   1.359       .  S
C817        C818   1.392       .  A
C818        F819   1.358       .  S
C823        C824   1.389       .  A
C823        C828   1.391       .  A
C823        F830   1.359       .  S
C824        C825   1.394       .  A
C825        C826   1.390       .  A
C825        F832   1.359       .  S
C826        C827   1.427       .  A
C826        F831   1.356   1_565  S
C827        C828   1.429       .  A
C828        F829   1.353       .  S
C833        C834   1.422       .  A
C833        C838   1.393       .  A
C833        F840   1.357       .  S
C834        C835   1.421       .  A
C835        C836   1.413       .  A
C835        F842   1.354       .  S
C836        C837   1.410       .  A
C836        F841   1.357       .  S
C837        C838   1.407       .  A
C838        F839   1.359       .  S
C843        C844   1.418       .  A
C843        C848   1.393       .  A
C843        F850   1.357       .  S
C844        C845   1.416       .  A
C845        C846   1.393       .  A
C845        F852   1.356       .  S
C846        C847   1.405       .  A
C846        F851   1.357       .  S
C847        C848   1.404       .  A
C848        F849   1.358       .  S
C853        C854   1.405       .  A
C853        C858   1.398       .  A
C853        F860   1.359       .  S
C854        C855   1.401       .  A
C855        C856   1.411       .  A
C855        F862   1.358       .  S
C856        C857   1.433       .  A
C856        F861   1.356   1_556  S
C857        C858   1.425       .  A
C858        F859   1.349       .  S
C863        C864   1.418       .  A
C863        C868   1.400       .  A
C863        F870   1.358       .  S
C864        C865   1.427       .  A
C865        C866   1.411       .  A
C865        F872   1.356       .  S
C866        C867   1.408       .  A
C866        F871   1.357       .  S
C867        C868   1.412       .  A
C868        F869   1.358       .  S
C873        C874   1.396       .  A
C873        C878   1.397       .  A
C873        F880   1.358       .  S
C874        C875   1.396       .  A
C875        C876   1.391       .  A
C875        F882   1.358       .  S
C876        C877   1.421       .  A
C876        F881   1.356       .  S
C877        C878   1.425       .  A
C878        F879   1.356       .  S
C883        C884   1.403       .  A
C883        C888   1.409       .  A
C883        F890   1.358       .  S
C884        C885   1.402       .  A
C885        C886   1.397       .  A
C885        F892   1.359       .  S
C886        C887   1.425       .  A
C886        F891   1.356       .  S
C887        C888   1.424       .  A
C888        F889   1.357       .  S
C893        C894   1.416       .  A
C893        C898   1.399       .  A
C893        F900   1.357       .  S
C894        C895   1.429       .  A
C895        C896   1.409       .  A
C895        F902   1.356       .  S
C896        C897   1.406       .  A
C896        F901   1.358       .  S
C897        C898   1.411       .  A
C898        F899   1.358       .  S
C903        C904   1.429       .  A
C903        C908   1.409       .  A
C903        F910   1.357       .  S
C904        C905   1.431       .  A
C905        C906   1.403       .  A
C905        F912   1.346       .  S
C906        C907   1.395       .  A
C906        F911   1.359       .  S
C907        C908   1.402       .  A
C908        F909   1.358       .  S
C913        C914   1.419       .  A
C913        C918   1.410   1_565  A
C913        F920   1.353       .  S
C914        C915   1.416       .  A
C915        C916   1.393   1_565  A
C915        F922   1.355       .  S
C916        C917   1.419       .  A
C916        F921   1.356       .  S
C917        C918   1.424       .  A
C918        F919   1.353       .  S
C923        C924   1.396       .  A
C923        C928   1.405       .  A
C923        F930   1.358       .  S
C924        C925   1.407       .  A
C925        C926   1.403       .  A
C925        F932   1.358       .  S
C926        C927   1.420       .  A
C926        F931   1.355       .  S
C927        C928   1.430       .  A
C928        F929   1.355       .  S
C933        C934   1.426       .  A
C933        C938   1.390       .  A
C933        F940   1.356       .  S
C934        C935   1.421       .  A
C935        C936   1.395       .  A
C935        F942   1.358       .  S
C936        C937   1.397       .  A
C936        F941   1.358       .  S
C937        C938   1.396       .  A
C938        F939   1.359       .  S
C943        C944   1.421       .  A
C943        C948   1.396       .  A
C943        F950   1.355       .  S
C944        C945   1.419       .  A
C945        C946   1.404       .  A
C945        F952   1.358       .  S
C946        C947   1.417       .  A
C946        F951   1.357       .  S
C947        C948   1.423       .  A
C948        F949   1.355       .  S
C953        C954   1.428       .  A
C953        C958   1.397       .  A
C953        F960   1.358       .  S
C954        C955   1.434       .  A
C955        C956   1.390       .  A
C955        F962   1.353       .  S
C956        C957   1.391       .  A
C956        F961   1.360       .  S
C957        C958   1.393       .  A
C958        F959   1.358       .  S
C963        C964   1.427       .  A
C963        C968   1.394       .  A
C963        F970   1.357       .  S
C964        C965   1.421       .  A
C965        C966   1.391       .  A
C965        F972   1.355       .  S
C966        C967   1.400       .  A
C966        F971   1.359       .  S
C967        C968   1.392       .  A
C968        F969   1.358       .  S
C973        C974   1.425       .  A
C973        C978   1.416       .  A
C973        F980   1.351       .  S
C974        C975   1.413       .  A
C975        C976   1.384       .  A
C975        F982   1.357       .  S
C976        C977   1.425       .  A
C976        F981   1.356       .  S
C977        C978   1.415       .  A
C978        F979   1.357       .  S
C983        C984   1.424       .  A
C983        C988   1.400   1_565  A
C983        F990   1.356       .  S
C984        C985   1.415       .  A
C985        C986   1.392   1_565  A
C985        F992   1.359       .  S
C986        C987   1.419       .  A
C986        F991   1.356       .  S
C987        C988   1.416       .  A
C988        F989   1.356       .  S
C993        C994   1.427       .  A
C993        C998   1.382       .  A
C993       F1000   1.354       .  S
C994        C995   1.432       .  A
C995        C996   1.394       .  A
C995       F1002   1.360       .  S
C996        C997   1.387       .  A
C996       F1001   1.358       .  S
C997        C998   1.390       .  A
C998        F999   1.357       .  S
C1003      C1004   1.425       .  A
C1003      C1008   1.380       .  A
C1003      F1010   1.354       .  S
C1004      C1005   1.427       .  A
C1005      C1006   1.399       .  A
C1005      F1012   1.359       .  S
C1006      C1007   1.397       .  A
C1006      F1011   1.358       .  S
C1007      C1008   1.392       .  A
C1008      F1009   1.360       .  S
C1013      C1014   1.406       .  A
C1013      C1018   1.400       .  A
C1013      F1020   1.358       .  S
C1014      C1015   1.399       .  A
C1015      C1016   1.399       .  A
C1015      F1022   1.358       .  S
C1016      C1017   1.427       .  A
C1016      F1021   1.356       .  S
C1017      C1018   1.420       .  A
C1018      F1019   1.355       .  S
C1023      C1024   1.416       .  A
C1023      C1028   1.394   1_556  A
C1023      F1030   1.357       .  S
C1024      C1025   1.408       .  A
C1025      C1026   1.395   1_556  A
C1025      F1032   1.359       .  S
C1026      C1027   1.424       .  A
C1026      F1031   1.349       .  S
C1027      C1028   1.430       .  A
C1028      F1029   1.358       .  S
C1033      C1034   1.425       .  A
C1033      C1038   1.390       .  A
C1033      F1040   1.354       .  S
C1034      C1035   1.424       .  A
C1035      C1036   1.402       .  A
C1035      F1042   1.352       .  S
C1036      C1037   1.400       .  A
C1036      F1041   1.358       .  S
C1037      C1038   1.392       .  A
C1038      F1039   1.359       .  S
C1043      C1044   1.407       .  A
C1043      C1048   1.390       .  A
C1043      F1050   1.358       .  S
C1044      C1045   1.395       .  A
C1045      C1046   1.399       .  A
C1045      F1052   1.358       .  S
C1046      C1047   1.427       .  A
C1046      F1051   1.350       .  S
C1047      C1048   1.420       .  A
C1048      F1049   1.357       .  S
C1053      C1054   1.407       .  A
C1053      C1058   1.392       .  A
C1053      F1060   1.356       .  S
C1054      C1055   1.417       .  A
C1055      C1056   1.380       .  A
C1055      F1062   1.355       .  S
C1056      C1057   1.410       .  A
C1056      F1061   1.348       .  S
C1057      C1058   1.430       .  A
C1058      F1059   1.358       .  S
C1063      C1064   1.432       .  A
C1063      C1068   1.392       .  A
C1063      F1070   1.357       .  S
C1064      C1065   1.422       .  A
C1065      C1066   1.406       .  A
C1065      F1072   1.354       .  S
C1066      C1067   1.401       .  A
C1066      F1071   1.358       .  S
C1067      C1068   1.390       .  A
C1068      F1069   1.359       .  S
C1073      C1074   1.424       .  A
C1073      C1078   1.407       .  A
C1073      F1080   1.353       .  S
C1074      C1075   1.415       .  A
C1075      C1076   1.381       .  A
C1075      F1082   1.359       .  S
C1076      C1077   1.407       .  A
C1076      F1081   1.359       .  S
C1077      C1078   1.405       .  A
C1078      F1079   1.358       .  S
C1083      C1084   1.420       .  A
C1083      C1088   1.395       .  A
C1083      F1090   1.356       .  S
C1084      C1085   1.416       .  A
C1085      C1086   1.412       .  A
C1085      F1092   1.353       .  S
C1086      C1087   1.429       .  A
C1086      F1091   1.354       .  S
C1087      C1088   1.414       .  A
C1088      F1089   1.355       .  S
C1093      C1094   1.413       .  A
C1093      C1098   1.373   1_556  A
C1093      F1100   1.357       .  S
C1094      C1095   1.421       .  A
C1095      C1096   1.414   1_556  A
C1095      F1102   1.356       .  S
C1096      C1097   1.414       .  A
C1096      F1101   1.357       .  S
C1097      C1098   1.419       .  A
C1098      F1099   1.355       .  S
C1103      C1104   1.421       .  A
C1103      C1108   1.398       .  A
C1103      F1110   1.350       .  S
C1104      C1105   1.428       .  A
C1105      C1106   1.412       .  A
C1105      F1112   1.356       .  S
C1106      C1107   1.409       .  A
C1106      F1111   1.357       .  S
C1107      C1108   1.410       .  A
C1108      F1109   1.358       .  S
C1113      C1114   1.428       .  A
C1113      C1118   1.403       .  A
C1113      F1120   1.354       .  S
C1114      C1115   1.425       .  A
C1115      C1116   1.408       .  A
C1115      F1122   1.358       .  S
C1116      C1117   1.403       .  A
C1116      F1121   1.358       .  S
C1117      C1118   1.401       .  A
C1118      F1119   1.358       .  S
C1123      C1124   1.413       .  A
C1123      C1128   1.402       .  A
C1123      F1130   1.358       .  S
C1124      C1125   1.433       .  A
C1125      C1126   1.400       .  A
C1125      F1132   1.357       .  S
C1126      C1127   1.402       .  A
C1126      F1131   1.358       .  S
C1127      C1128   1.416       .  A
C1128      F1129   1.358       .  S
C1133      C1134   1.422       .  A
C1133      C1138   1.411   1_655  A
C1133      F1140   1.354       .  S
C1134      C1135   1.416       .  A
C1135      C1136   1.383   1_655  A
C1135      F1142   1.357       .  S
C1136      C1137   1.414       .  A
C1136      F1141   1.353       .  S
C1137      C1138   1.420       .  A
C1138      F1139   1.355       .  S
C1143      C1144   1.434       .  A
C1143      C1148   1.402       .  A
C1143      F1150   1.354       .  S
C1144      C1145   1.423       .  A
C1145      C1146   1.404       .  A
C1145      F1152   1.359       .  S
C1146      C1147   1.410       .  A
C1146      F1151   1.358       .  S
C1147      C1148   1.402       .  A
C1148      F1149   1.358       .  S
C1153      C1154   1.401       .  A
C1153      C1158   1.405       .  A
C1153      F1160   1.358       .  S
C1154      C1155   1.403       .  A
C1155      C1156   1.401       .  A
C1155      F1162   1.359       .  S
C1156      C1157   1.423       .  A
C1156      F1161   1.355       .  S
C1157      C1158   1.426       .  A
C1158      F1159   1.358       .  S
C1163      C1164   1.423       .  A
C1163      C1168   1.392       .  A
C1163      F1170   1.357       .  S
C1164      C1165   1.413       .  A
C1165      C1166   1.416       .  A
C1165      F1172   1.358       .  S
C1166      C1167   1.430       .  A
C1166      F1171   1.346       .  S
C1167      C1168   1.422       .  A
C1168      F1169   1.356       .  S
C1173      C1174   1.426       .  A
C1173      C1178   1.405       .  A
C1173      F1180   1.354       .  S
C1174      C1175   1.429       .  A
C1175      C1176   1.404       .  A
C1175      F1182   1.356       .  S
C1176      C1177   1.397       .  A
C1176      F1181   1.358       .  S
C1177      C1178   1.403       .  A
C1178      F1179   1.359       .  S
C1183      C1184   1.428       .  A
C1183      C1188   1.400       .  A
C1183      F1190   1.356       .  S
C1184      C1185   1.424       .  A
C1185      C1186   1.405       .  A
C1185      F1192   1.357       .  S
C1186      C1187   1.401       .  A
C1186      F1191   1.358       .  S
C1187      C1188   1.399       .  A
C1188      F1189   1.359       .  S
C1193      C1194   1.423       .  A
C1193      C1198   1.408       .  A
C1193      F1200   1.355       .  S
C1194      C1195   1.420       .  A
C1195      C1196   1.408       .  A
C1195      F1202   1.358       .  S
C1196      C1197   1.422       .  A
C1196      F1201   1.358       .  S
C1197      C1198   1.424       .  A
C1198      F1199   1.354       .  S
C1203      C1204   1.420       .  A
C1203      C1208   1.406   1_655  A
C1203      F1210   1.355       .  S
C1204      C1205   1.418       .  A
C1205      C1206   1.398   1_655  A
C1205      F1212   1.357       .  S
C1206      C1207   1.419       .  A
C1206      F1211   1.359       .  S
C1207      C1208   1.426       .  A
C1208      F1209   1.355       .  S
C1213      C1214   1.404       .  A
C1213      C1218   1.411       .  A
C1213      F1220   1.358       .  S
C1214      C1215   1.403       .  A
C1215      C1216   1.405       .  A
C1215      F1222   1.358       .  S
C1216      C1217   1.427       .  A
C1216      F1221   1.355       .  S
C1217      C1218   1.426       .  A
C1218      F1219   1.357       .  S
C1223      C1224   1.412       .  A
C1223      C1228   1.387       .  A
C1223      F1230   1.359       .  S
C1224      C1225   1.403       .  A
C1225      C1226   1.403       .  A
C1225      F1232   1.358       .  S
C1226      C1227   1.429       .  A
C1226      F1231   1.356       .  S
C1227      C1228   1.414       .  A
C1228      F1229   1.357       .  S
C1233      C1234   1.408       .  A
C1233      C1238   1.415       .  A
C1233      F1240   1.358       .  S
C1234      C1235   1.414       .  A
C1235      C1236   1.402       .  A
C1235      F1242   1.357       .  S
C1236      C1237   1.420       .  A
C1236      F1241   1.358       .  S
C1237      C1238   1.433       .  A
C1238      F1239   1.354       .  S
C1243      C1244   1.408       .  A
C1243      C1248   1.408       .  A
C1243      F1250   1.358       .  S
C1244      C1245   1.404       .  A
C1245      C1246   1.412       .  A
C1245      F1252   1.357       .  S
C1246      C1247   1.427       .  A
C1246      F1251   1.358       .  S
C1247      C1248   1.423       .  A
C1248      F1249   1.354       .  S
C1253      C1254   1.399       .  A
C1253      C1258   1.393       .  A
C1253      F1260   1.359       .  S
C1254      C1255   1.394       .  A
C1255      C1256   1.390       .  A
C1255      F1262   1.359       .  S
C1256      C1257   1.427       .  A
C1256      F1261   1.359       .  S
C1257      C1258   1.422       .  A
C1258      F1259   1.354       .  S
C1263      C1264   1.400       .  A
C1263      C1268   1.401       .  A
C1263      F1270   1.358       .  S
C1264      C1265   1.406       .  A
C1265      C1266   1.414       .  A
C1265      F1272   1.358       .  S
C1266      C1267   1.425       .  A
C1266      F1271   1.358       .  S
C1267      C1268   1.428       .  A
C1268      F1269   1.355       .  S
