geometry optimzed in LAMMPS
_audit_creation_date              2020-12-01 
_audit_creation_method            'lammps2cif' 
_symmetry_space_group_name_H-M    'P1' 
_symmetry_Int_Tables_number       1 
_symmetry_cell_setting            triclinic 
loop_ 
_symmetry_equiv_pos_as_xyz 
  x,y,z 
_cell_length_a                    39.07045777 
_cell_length_b                    41.12684889145372 
_cell_length_c                    40.76208351372603 
_cell_angle_alpha                 99.65485601130884 
_cell_angle_beta                  92.1512055458483 
_cell_angle_gamma                 115.07084111523066 
loop_ 
_atom_site_label 
_atom_site_type_symbol 
_atom_site_fract_x 
_atom_site_fract_y 
_atom_site_fract_z 
_atom_site_charge 
O1          O  0.46191494  0.09341063  0.03863940    -0.78900
O2          O  0.48633528  0.12363745  0.18862842    -0.63600
O3          O  0.43363779  0.08982744  0.10056337    -1.10200
C4          C  0.43198634  0.20107510  0.10724319     1.08000
O5          O  0.46940942  0.16888034  0.20634562    -0.76800
O6          O  0.40007248  0.13395826  0.16371070    -0.64400
Ni7        Ni  0.44256161  0.05776466  0.06729387     1.34900
C8          C  0.37791245  0.11863298  0.13619086     0.86700
O9          O  0.44752421  0.05467977  0.14816064    -0.77300
O10         O  0.42423024  0.02160400  0.09502722    -0.87600
C11         C  0.48861085  0.15110356  0.21008785     0.86300
O12         O  0.99291393  0.06753654  0.08406345    -0.65800
O13         O  0.42395293  0.19478798  0.13609517    -0.85100
C14         C  0.01582616  0.08900490  0.10941786     0.87100
C15         C  0.43133037  0.02413911  0.12661528     1.08700
H16         H  0.49383192  0.16871708  0.13796770     0.40500
O17         O  0.46712135  0.15327083  0.13823711    -1.07700
O18         O  0.38965443  0.12376583  0.10740840    -0.64400
Ni19       Ni  0.44149885  0.13696462  0.09390957     1.26300
O20         O  0.00813852  0.11093027  0.13040349    -0.64600
O21         O  0.44783305  0.18469391  0.08909053    -0.76900
C22         C  0.44739299  0.11380820  0.03005183     0.86500
O23         O  0.42338249  0.12021425  0.04714789    -0.64100
Ni24       Ni  0.44618674  0.17821579  0.16891425     1.27400
Ni25       Ni  0.45923941  0.10489297  0.14431557     1.26100
H26         H  0.40712778  0.07595129  0.10282493     0.41100
O27         O  0.33623949  0.31073451  0.03715066    -0.78900
O28         O  0.37906726  0.31132263  0.19005936    -0.63600
O29         O  0.34885083  0.32302209  0.10549448    -1.10200
C30         C  0.48350929  0.39362010  0.11578174     1.08000
O31         O  0.40740466  0.37218341  0.20477971    -0.76800
O32         O  0.43741275  0.42266181  0.16565542    -0.64400
Ni33       Ni  0.32304601  0.28063821  0.07073277     1.34900
C34         C  0.41546214  0.42467234  0.14319847     0.86700
O35         O  0.31256118  0.27970562  0.15099986    -0.77300
O36         O  0.30296775  0.24593706  0.09997365    -0.87600
C37         C  0.38649302  0.34088537  0.21077409     0.86300
O38         O  0.36810794  0.27257818  0.07070983    -0.65800
O39         O  0.48461871  0.39270375  0.14689106    -0.85100
C40         C  0.38153114  0.26512320  0.09606679     0.87100
C41         C  0.29709936  0.24912323  0.13057396     1.08700
H42         H  0.42691967  0.33020939  0.13515768     0.40500
O43         O  0.41307361  0.34467774  0.14036244    -1.07700
O44         O  0.39487693  0.39766437  0.11988942    -0.64400
Ni45       Ni  0.40068676  0.35457461  0.09990243     1.26300
O46         O  0.37476643  0.27367511  0.12606297    -0.64600
O47         O  0.45327532  0.38364019  0.09568568    -0.76900
C48         C  0.35901417  0.34381386  0.03677741     0.86500
O49         O  0.38660307  0.36395843  0.05912865    -0.64100
Ni50       Ni  0.44574113  0.38235693  0.17548408     1.27400
Ni51       Ni  0.36302834  0.31363469  0.14657702     1.26100
H52         H  0.33384057  0.33663479  0.10916762     0.41100
O53         O  0.19387292  0.04554405  0.20921629    -0.78900
O54         O  0.22011275  0.06731071  0.06594648    -0.63600
O55         O  0.18226156  0.07327639  0.15175834    -1.10200
C56         C  0.08446217  0.46060814  0.10057853     1.08000
O57         O  0.16349934  0.05639429  0.04697290    -0.76800
O58         O  0.10675665  0.04891947  0.08203937    -0.64400
Ni59       Ni  0.21512892  0.09187258  0.19248264     1.34900
C60         C  0.09745533  0.05379607  0.11119670     0.86700
O61         O  0.23965316  0.12375030  0.12283164    -0.77300
O62         O  0.23559478  0.13862938  0.17840652    -0.87600
C63         C  0.19357551  0.05341603  0.04168552     0.86300
O64         O  0.25895028  0.08609692  0.17724471    -0.65800
O65         O  0.08762975  0.47537632  0.07509468    -0.85100
C66         C  0.26519806  0.07324276  0.14865906     0.87100
C67         C  0.24528024  0.14712220  0.15009136     1.08700
H68         H  0.17267492  0.00676627  0.09409941     0.40500
O69         O  0.16222173  0.02433042  0.09875059    -1.07700
O70         O  0.10666812  0.04131782  0.13499690    -0.64400
Ni71       Ni  0.14509540  0.02349409  0.14168553     1.26300
O72         O  0.23906495  0.05675977  0.12410416    -0.64600
O73         O  0.10736771  0.47430198  0.12767855    -0.76900
C74         C  0.15828542  0.02525673  0.21020499     0.86500
O75         O  0.13331583  0.02205294  0.18717632    -0.64100
Ni76       Ni  0.12631242  0.01629653  0.06151758     1.27400
Ni77       Ni  0.20261076  0.07313286  0.10988821     1.26100
H78         H  0.16926862  0.08873909  0.15227604     0.41100
O79         O  0.37932290  0.42229288  0.46066656    -0.78900
O80         O  0.36247533  0.38658030  0.31299247    -0.63000
O81         O  0.34703148  0.42177261  0.39916580    -1.10200
C82         C  0.24798984  0.31108227  0.39565257     1.08000
O83         O  0.30413249  0.34108474  0.29532751    -0.76800
O84         O  0.26961209  0.37569594  0.33777182    -0.64400
Ni85       Ni  0.38702312  0.45628250  0.43123183     1.34900
C86         C  0.26300484  0.39074604  0.36524197     0.86700
O87         O  0.38545911  0.45446461  0.35023493    -0.77300
O88         O  0.39517388  0.49018217  0.40193469    -0.87600
C89         C  0.33861888  0.35963672  0.29156598     0.86300
O90         O  0.42845001  0.44814245  0.41459255    -0.65800
O91         O  0.24308660  0.31577448  0.36624748    -0.85100
C92         C  0.43043404  0.42532126  0.39056369     0.87100
C93         C  0.39571735  0.48547889  0.37009329     1.08700
H94         H  0.33561559  0.34233619  0.36415850     0.40500
O95         O  0.32218040  0.35731970  0.36349339    -1.07700
O96         O  0.27296137  0.38634453  0.39395805    -0.64400
Ni97       Ni  0.31499094  0.37519455  0.40739235     1.26300
O98         O  0.40133941  0.40163093  0.37063966    -0.64600
O99         O  0.27990450  0.32795458  0.41383309    -0.76900
C100        C  0.34758673  0.40115822  0.46905160     0.86500
O101        O  0.31615143  0.39470774  0.45293921    -0.64100
Ni102      Ni  0.27647424  0.33181846  0.33303430     1.27400
Ni103      Ni  0.35540508  0.40539365  0.35621282     1.26100
H104        H  0.33194238  0.43474185  0.39619449     0.41100
O105        O  0.13235517  0.44168727  0.29116590    -0.78900
O106        O  0.15753965  0.45169718  0.44066505    -0.63600
O107        O  0.10260017  0.43051045  0.35343501    -1.10200
C108        C  0.11309974  0.04720785  0.38311013     1.08000
O109        O  0.11655514  0.47055926  0.45930735    -0.76800
O110        O  0.06088410  0.46640546  0.41659910    -0.64400
Ni111      Ni  0.11007909  0.40162776  0.31600554     1.34900
C112        C  0.04363161  0.45886198  0.38735954     0.86700
O113        O  0.11641722  0.38665631  0.39287006    -0.77300
O114        O  0.08807999  0.36105980  0.33929555    -0.87600
C115        C  0.14875610  0.47076455  0.46364943     0.86300
O116        O  0.15943912  0.40706835  0.33138039    -0.65800
O117        O  0.10476913  0.03716650  0.41075351    -0.85100
C118        C  0.18331363  0.42723657  0.35668476     0.87100
C119        C  0.09505955  0.35896199  0.36981683     1.08700
H120        H  0.16197302  0.50399003  0.40210209     0.40500
O121        O  0.13519004  0.48732248  0.39918700    -1.07700
O122        O  0.06120102  0.46812486  0.36209799    -0.64400
Ni123      Ni  0.11428290  0.48063173  0.35442491     1.26300
O124        O  0.17648833  0.44794858  0.37962495    -0.64600
O125        O  0.12432860  0.03080457  0.35969376    -0.76900
C126        C  0.12107377  0.46598189  0.28672409     0.86500
O127        O  0.10040132  0.47410784  0.30700756    -0.64100
Ni128      Ni  0.11108693  0.50314521  0.43400093     1.27400
Ni129      Ni  0.12847249  0.43804754  0.39658250     1.26100
H130        H  0.07585653  0.41749662  0.35539746     0.41100
O131        O  0.06760931  0.15564259  0.29895170    -0.78900
O132        O  0.00799774  0.13735607  0.43377274    -0.63600
O133        O  0.02375965  0.15760261  0.34663606    -1.10200
C134        C  0.14096114  0.24923369  0.40750013     1.08000
O135        O  0.02159400  0.19544919  0.45454788    -0.76800
O136        O  0.06631560  0.25638692  0.42448245    -0.64400
Ni137      Ni  0.02288147  0.12037959  0.31080615     1.34900
C138        C  0.05867738  0.25841500  0.39446996     0.86700
O139        O  0.46783378  0.10572595  0.37354440    -0.77300
O140        O  0.47866912  0.08242801  0.32296164    -0.87600
C141        C  0.00467599  0.16128227  0.45575104     0.86300
O142        O  0.05642373  0.10818436  0.33413558    -0.65800
O143        O  0.12593774  0.24223651  0.43440235    -0.85100
C144        C  0.05935449  0.10518447  0.36410977     0.87100
C145        C  0.45928875  0.08045368  0.34767829     1.08700
H146        H  0.08322296  0.17444698  0.40644335     0.40500
O147        O  0.06538105  0.18447437  0.40293267    -1.07700
O148        O  0.04929929  0.23161063  0.37003909    -0.64400
Ni149      Ni  0.07264199  0.19902828  0.36094925     1.26300
O150        O  0.04005567  0.11276652  0.38592427    -0.64600
O151        O  0.12253679  0.23826921  0.37787423    -0.76900
C152        C  0.06549236  0.18342620  0.29261437     0.86500
O153        O  0.07521785  0.21083891  0.31657032    -0.64100
Ni154      Ni  0.07373810  0.21913054  0.44293078     1.27400
Ni155      Ni  0.01603310  0.14552041  0.38944975     1.26100
H156        H  0.00513170  0.16574292  0.34011865     0.41100
C157        C  0.06548569  0.29366532  0.38696683    -0.11300
C158        C  0.07783657  0.32334616  0.37896735    -0.12800
C159        C  0.08531217  0.09152481  0.37288614    -0.11300
C160        C  0.10365254  0.07531366  0.37708257    -0.12800
C161        C  0.41036959  0.01737500  0.35607990    -0.11300
C162        C  0.42876359  0.04620279  0.34862533    -0.12800
C163        C  0.21443487  0.28842947  0.40839640    -0.11300
C164        C  0.18135056  0.27048665  0.41064626    -0.12800
C165        C  0.21783682  0.42305830  0.36079945    -0.11300
C166        C  0.24107844  0.41121495  0.36355757    -0.12800
C167        C  0.46828271  0.42910222  0.38501347    -0.11300
C168        C  0.50231940  0.44033916  0.38361215    -0.12800
C169        C  0.14571983  0.00427066  0.23727490    -0.11300
C170        C  0.13410541  0.48639141  0.25934419    -0.12800
C171        C  0.17626730  0.49808724  0.49097102    -0.11300
C172        C  0.19088434  0.02465086  0.01401634    -0.12800
C173        C  0.35211263  0.36064197  0.01095122    -0.11300
C174        C  0.34815680  0.37897622  0.49237413    -0.12800
C175        C  0.35183957  0.34819766  0.26213388    -0.11300
C176        C  0.36639258  0.34054626  0.23878004    -0.12800
C177        C  0.27674140  0.21592462  0.14257208    -0.11300
C178        C  0.26264026  0.18530877  0.14822391    -0.12800
C179        C  0.01907651  0.40880265  0.10364924    -0.11300
C180        C  0.05063031  0.42871677  0.09983541    -0.12800
C181        C  0.51604115  0.16491236  0.23954004    -0.11300
C182        C  0.04038227  0.17773870  0.26339616    -0.12800
C183        C  0.98098492  0.14849187  0.48204628    -0.11300
C184        C  0.46298036  0.13343901  0.00337711    -0.12800
C185        C  0.40360890  0.24456123  0.09146832    -0.11300
C186        C  0.41938984  0.22540780  0.09479938    -0.12800
C187        C  0.42177406  0.49009753  0.13778909    -0.11300
C188        C  0.41636551  0.46005014  0.14249582    -0.12800
C189        C  0.30438598  0.08200492  0.14285573    -0.11300
C190        C  0.33777326  0.09643974  0.13834399    -0.12800
C191        C  0.05053951  0.08519608  0.11533872    -0.11300
C192        C  0.07397833  0.07316716  0.11638112    -0.12800
O193        O  0.46191490  0.09341061  0.53863938    -0.78900
O194        O  0.48633525  0.12363740  0.68862841    -0.63600
O195        O  0.43363769  0.08982737  0.60056338    -1.10200
C196        C  0.43198640  0.20107510  0.60724317     1.08000
O197        O  0.46940952  0.16888039  0.70634565    -0.76800
O198        O  0.40007247  0.13395835  0.66371075    -0.64400
Ni199      Ni  0.44256158  0.05776462  0.56729388     1.34900
C200        C  0.37791245  0.11863299  0.63619089     0.86700
O201        O  0.44752419  0.05467976  0.64816062    -0.77300
O202        O  0.42423022  0.02160394  0.59502723    -0.87600
C203        C  0.48861087  0.15110351  0.71008785     0.86300
O204        O  0.99291396  0.06753660  0.58406344    -0.65800
O205        O  0.42395287  0.19478791  0.63609511    -0.85100
C206        C  0.01582625  0.08900500  0.60941781     0.87100
C207        C  0.43133035  0.02413909  0.62661529     1.08700
H208        H  0.49383147  0.16871673  0.63796771     0.40500
O209        O  0.46712128  0.15327076  0.63823713    -1.07700
O210        O  0.38965441  0.12376587  0.60740843    -0.64400
Ni211      Ni  0.44149879  0.13696457  0.59390957     1.26300
O212        O  0.00813858  0.11093026  0.63040353    -0.64600
O213        O  0.44783314  0.18469393  0.58909054    -0.76900
C214        C  0.44739296  0.11380818  0.53005179     0.86500
O215        O  0.42338245  0.12021421  0.54714785    -0.64100
Ni216      Ni  0.44618676  0.17821583  0.66891427     1.27400
Ni217      Ni  0.45923935  0.10489290  0.64431557     1.26100
H218        H  0.40712769  0.07595122  0.60282496     0.41100
O219        O  0.33623943  0.31073454  0.53715071    -0.78900
O220        O  0.37906723  0.31132263  0.69005939    -0.63600
O221        O  0.34885082  0.32302211  0.60549449    -1.10200
C222        C  0.48350929  0.39362003  0.61578177     1.08000
O223        O  0.40740464  0.37218341  0.70477978    -0.76800
O224        O  0.43741272  0.42266180  0.66565551    -0.64400
Ni225      Ni  0.32304606  0.28063818  0.57073280     1.34900
C226        C  0.41546221  0.42467240  0.64319851     0.86700
O227        O  0.31256113  0.27970567  0.65099978    -0.77300
O228        O  0.30296790  0.24593698  0.59997366    -0.87600
C229        C  0.38649298  0.34088536  0.71077413     0.86300
O230        O  0.36810809  0.27257831  0.57070989    -0.65800
O231        O  0.48461871  0.39270379  0.64689113    -0.85100
C232        C  0.38153114  0.26512318  0.59606683     0.87100
C233        C  0.29709938  0.24912324  0.63057393     1.08700
H234        H  0.42691946  0.33020963  0.63515778     0.40500
O235        O  0.41307358  0.34467780  0.64036251    -1.07700
O236        O  0.39487697  0.39766445  0.61988944    -0.64400
Ni237      Ni  0.40068676  0.35457466  0.59990248     1.26300
O238        O  0.37476639  0.27367506  0.62606300    -0.64600
O239        O  0.45327533  0.38364015  0.59568572    -0.76900
C240        C  0.35901417  0.34381387  0.53677745     0.86500
O241        O  0.38660309  0.36395842  0.55912867    -0.64100
Ni242      Ni  0.44574111  0.38235694  0.67548416     1.27400
Ni243      Ni  0.36302830  0.31363470  0.64657704     1.26100
H244        H  0.33384061  0.33663476  0.60916754     0.41100
O245        O  0.19387289  0.04554406  0.70921634    -0.78900
O246        O  0.22011272  0.06731069  0.56594647    -0.63600
O247        O  0.18226166  0.07327646  0.65175834    -1.10200
C248        C  0.08446212  0.46060804  0.60057849     1.08000
O249        O  0.16349929  0.05639427  0.54697285    -0.76800
O250        O  0.10675663  0.04891941  0.58203935    -0.64400
Ni251      Ni  0.21512896  0.09187260  0.69248267     1.34900
C252        C  0.09745536  0.05379610  0.61119669     0.86700
O253        O  0.23965326  0.12375041  0.62283166    -0.77300
O254        O  0.23559487  0.13862944  0.67840656    -0.87600
C255        C  0.19357548  0.05341603  0.54168550     0.86300
O256        O  0.25895029  0.08609683  0.67724476    -0.65800
O257        O  0.08762971  0.47537621  0.57509463    -0.85100
C258        C  0.26519804  0.07324268  0.64865909     0.87100
C259        C  0.24528034  0.14712230  0.65009140     1.08700
H260        H  0.17267468  0.00676660  0.59409955     0.40500
O261        O  0.16222173  0.02433049  0.59875060    -1.07700
O262        O  0.10666820  0.04131795  0.63499694    -0.64400
Ni263      Ni  0.14509542  0.02349416  0.64168550     1.26300
O264        O  0.23906492  0.05675973  0.62410419    -0.64600
O265        O  0.10736765  0.47430191  0.62767851    -0.76900
C266        C  0.15828538  0.02525665  0.71020494     0.86500
O267        O  0.13331583  0.02205292  0.68717626    -0.64100
Ni268      Ni  0.12631241  0.01629651  0.56151756     1.27400
Ni269      Ni  0.20261081  0.07313293  0.60988823     1.26100
H270        H  0.16926890  0.08873916  0.65227598     0.41100
O271        O  0.37932294  0.42229295  0.96066661    -0.78900
O272        O  0.36247530  0.38658036  0.81299241    -0.63000
O273        O  0.34703147  0.42177265  0.89916575    -1.10200
C274        C  0.24798983  0.31108236  0.89565262     1.08000
O275        O  0.30413247  0.34108469  0.79532751    -0.76800
O276        O  0.26961217  0.37569595  0.83777181    -0.64400
Ni277      Ni  0.38702312  0.45628256  0.93123186     1.34900
C278        C  0.26300483  0.39074599  0.86524194     0.86700
O279        O  0.38545911  0.45446473  0.85023491    -0.77300
O280        O  0.39517394  0.49018226  0.90193472    -0.87600
C281        C  0.33861886  0.35963672  0.79156597     0.86300
O282        O  0.42844999  0.44814243  0.91459265    -0.65800
O283        O  0.24308663  0.31577460  0.86624754    -0.85100
C284        C  0.43043400  0.42532124  0.89056377     0.87100
C285        C  0.39571738  0.48547899  0.87009331     1.08700
H286        H  0.33561556  0.34233617  0.86415838     0.40500
O287        O  0.32218040  0.35731971  0.86349334    -1.07700
O288        O  0.27296131  0.38634446  0.89395803    -0.64400
Ni289      Ni  0.31499096  0.37519458  0.90739233     1.26300
O290        O  0.40133940  0.40163102  0.87063965    -0.64600
O291        O  0.27990450  0.32795464  0.91383316    -0.76900
C292        C  0.34758675  0.40115825  0.96905159     0.86500
O293        O  0.31615149  0.39470783  0.95293918    -0.64100
Ni294      Ni  0.27647422  0.33181845  0.83303431     1.27400
Ni295      Ni  0.35540507  0.40539371  0.85621277     1.26100
H296        H  0.33194229  0.43474191  0.89619438     0.41100
O297        O  0.13235526  0.44168741  0.79116598    -0.78900
O298        O  0.15753957  0.45169711  0.94066505    -0.63600
O299        O  0.10260006  0.43051038  0.85343504    -1.10200
C300        C  0.11309978  0.04720789  0.88311017     1.08000
O301        O  0.11655516  0.47055935  0.95930737    -0.76800
O302        O  0.06088409  0.46640541  0.91659911    -0.64400
Ni303      Ni  0.11007913  0.40162783  0.81600558     1.34900
C304        C  0.04363158  0.45886193  0.88735954     0.86700
O305        O  0.11641720  0.38665633  0.89287016    -0.77300
O306        O  0.08808015  0.36105987  0.83929559    -0.87600
C307        C  0.14875607  0.47076453  0.96364943     0.86300
O308        O  0.15943911  0.40706833  0.83138034    -0.65800
O309        O  0.10476919  0.03716655  0.91075356    -0.85100
C310        C  0.18331358  0.42723646  0.85668473     0.87100
C311        C  0.09505960  0.35896204  0.86981689     1.08700
H312        H  0.16197256  0.50398965  0.90210200     0.40500
O313        O  0.13518998  0.48732240  0.89918697    -1.07700
O314        O  0.06120097  0.46812490  0.86209801    -0.64400
Ni315      Ni  0.11428279  0.48063163  0.85442490     1.26300
O316        O  0.17648827  0.44794843  0.87962497    -0.64600
O317        O  0.12432861  0.03080459  0.85969378    -0.76900
C318        C  0.12107377  0.46598194  0.78672409     0.86500
O319        O  0.10040125  0.47410781  0.80700753    -0.64100
Ni320      Ni  0.11108691  0.50314521  0.93400090     1.27400
Ni321      Ni  0.12847238  0.43804746  0.89658252     1.26100
H322        H  0.07585585  0.41749628  0.85539752     0.41100
O323        O  0.06760930  0.15564251  0.79895166    -0.78900
O324        O  0.00799771  0.13735612  0.93377275    -0.63600
O325        O  0.02375958  0.15760253  0.84663600    -1.10200
C326        C  0.14096112  0.24923361  0.90750017     1.08000
O327        O  0.02159400  0.19544926  0.95454797    -0.76800
O328        O  0.06631585  0.25638707  0.92448250    -0.64400
Ni329      Ni  0.02288143  0.12037952  0.81080609     1.34900
C330        C  0.05867756  0.25841512  0.89447002     0.86700
O331        O  0.46783375  0.10572592  0.87354441    -0.77300
O332        O  0.47866905  0.08242802  0.82296161    -0.87600
C333        C  0.00467598  0.16128231  0.95575109     0.86300
O334        O  0.05642364  0.10818426  0.83413562    -0.65800
O335        O  0.12593775  0.24223646  0.93440241    -0.85100
C336        C  0.05935447  0.10518444  0.86410983     0.87100
C337        C  0.45928872  0.08045368  0.84767827     1.08700
H338        H  0.08322296  0.17444689  0.90644343     0.40500
O339        O  0.06538100  0.18447434  0.90293269    -1.07700
O340        O  0.04929937  0.23161070  0.87003915    -0.64400
Ni341      Ni  0.07264194  0.19902821  0.86094925     1.26300
O342        O  0.04005562  0.11276644  0.88592433    -0.64600
O343        O  0.12253676  0.23826910  0.87787427    -0.76900
C344        C  0.06549240  0.18342614  0.79261434     0.86500
O345        O  0.07521784  0.21083883  0.81657031    -0.64100
Ni346      Ni  0.07373811  0.21913057  0.94293083     1.27400
Ni347      Ni  0.01603305  0.14552037  0.88944974     1.26100
H348        H  0.00513151  0.16574287  0.84011850     0.41100
C349        C  0.06548575  0.29366541  0.88696690    -0.11300
C350        C  0.07783658  0.32334623  0.87896740    -0.12800
C351        C  0.08531228  0.09152493  0.87288622    -0.11300
C352        C  0.10365260  0.07531372  0.87708264    -0.12800
C353        C  0.41036957  0.01737502  0.85607995    -0.11300
C354        C  0.42876356  0.04620278  0.84862529    -0.12800
C355        C  0.21443483  0.28842952  0.90839638    -0.11300
C356        C  0.18135054  0.27048661  0.91064628    -0.12800
C357        C  0.21783679  0.42305820  0.86079934    -0.11300
C358        C  0.24107839  0.41121484  0.86355749    -0.12800
C359        C  0.46828267  0.42910214  0.88501356    -0.11300
C360        C  0.50231935  0.44033906  0.88361218    -0.12800
C361        C  0.14571974  0.00427049  0.73727479    -0.11300
C362        C  0.13410534  0.48639139  0.75934412    -0.12800
C363        C  0.17626733  0.49808722  0.99097098    -0.11300
C364        C  0.19088433  0.02465085  0.51401636    -0.12800
C365        C  0.35211267  0.36064206  0.51095130    -0.11300
C366        C  0.34815674  0.37897611  0.99237402    -0.12800
C367        C  0.35183956  0.34819762  0.76213390    -0.11300
C368        C  0.36639251  0.34054623  0.73878004    -0.12800
C369        C  0.27674142  0.21592472  0.64257213    -0.11300
C370        C  0.26264033  0.18530888  0.64822399    -0.12800
C371        C  0.01907646  0.40880255  0.60364926    -0.11300
C372        C  0.05063025  0.42871666  0.59983541    -0.12800
C373        C  0.51604120  0.16491226  0.73954000    -0.11300
C374        C  0.04038232  0.17773869  0.76339615    -0.12800
C375        C  0.98098493  0.14849183  0.98204633    -0.11300
C376        C  0.46298036  0.13343903  0.50337707    -0.12800
C377        C  0.40360888  0.24456118  0.59146835    -0.11300
C378        C  0.41938991  0.22540783  0.59479940    -0.12800
C379        C  0.42177427  0.49009762  0.63778908    -0.11300
C380        C  0.41636575  0.46005023  0.64249581    -0.12800
C381        C  0.30438596  0.08200482  0.64285573    -0.11300
C382        C  0.33777326  0.09643967  0.63834402    -0.12800
C383        C  0.05053965  0.08519623  0.61533859    -0.11300
C384        C  0.07397843  0.07316727  0.61638107    -0.12800
O385        O  0.46191490  0.59341061  0.03863938    -0.78900
O386        O  0.48633521  0.62363742  0.18862842    -0.63600
O387        O  0.43363770  0.58982736  0.10056334    -1.10200
C388        C  0.43198630  0.70107503  0.10724320     1.08000
O389        O  0.46940948  0.66888038  0.20634563    -0.76800
O390        O  0.40007250  0.63395819  0.16371071    -0.64400
Ni391      Ni  0.44256164  0.55776464  0.06729387     1.34900
C392        C  0.37791246  0.61863298  0.13619086     0.86700
O393        O  0.44752408  0.55467972  0.14816065    -0.77300
O394        O  0.42423020  0.52160396  0.09502722    -0.87600
C395        C  0.48861083  0.65110354  0.21008787     0.86300
O396        O  0.99291405  0.56753665  0.08406343    -0.65800
O397        O  0.42395286  0.69478790  0.13609518    -0.85100
C398        C  0.01582625  0.58900502  0.10941786     0.87100
C399        C  0.43133024  0.52413906  0.12661528     1.08700
H400        H  0.49383090  0.66871643  0.13796772     0.40500
O401        O  0.46712127  0.65327075  0.13823711    -1.07700
O402        O  0.38965444  0.62376588  0.10740840    -0.64400
Ni403      Ni  0.44149878  0.63696455  0.09390957     1.26300
O404        O  0.00813851  0.61093028  0.13040352    -0.64600
O405        O  0.44783302  0.68469386  0.08909055    -0.76900
C406        C  0.44739297  0.61380821  0.03005185     0.86500
O407        O  0.42338246  0.62021424  0.04714791    -0.64100
Ni408      Ni  0.44618670  0.67821574  0.16891426     1.27400
Ni409      Ni  0.45923927  0.60489287  0.14431556     1.26100
H410        H  0.40712765  0.57595121  0.10282484     0.41100
O411        O  0.33623958  0.81073449  0.03715064    -0.78900
O412        O  0.37906736  0.81132262  0.19005937    -0.63600
O413        O  0.34885088  0.82302206  0.10549448    -1.10200
C414        C  0.48350928  0.89362005  0.11578172     1.08000
O415        O  0.40740462  0.87218340  0.20477968    -0.76800
O416        O  0.43741274  0.92266178  0.16565546    -0.64400
Ni417      Ni  0.32304613  0.78063816  0.07073276     1.34900
C418        C  0.41546222  0.92467240  0.14319847     0.86700
O419        O  0.31256116  0.77970561  0.15099985    -0.77300
O420        O  0.30296784  0.74593700  0.09997366    -0.87600
C421        C  0.38649308  0.84088535  0.21077410     0.86300
O422        O  0.36810813  0.77257828  0.07070985    -0.65800
O423        O  0.48461869  0.89270370  0.14689105    -0.85100
C424        C  0.38153123  0.76512320  0.09606680     0.87100
C425        C  0.29709931  0.74912321  0.13057394     1.08700
H426        H  0.42692002  0.83020908  0.13515750     0.40500
O427        O  0.41307367  0.84467771  0.14036243    -1.07700
O428        O  0.39487703  0.89766446  0.11988937    -0.64400
Ni429      Ni  0.40068685  0.85457462  0.09990241     1.26300
O430        O  0.37476646  0.77367503  0.12606297    -0.64600
O431        O  0.45327533  0.88364023  0.09568567    -0.76900
C432        C  0.35901422  0.84381386  0.03677741     0.86500
O433        O  0.38660310  0.86395844  0.05912864    -0.64100
Ni434      Ni  0.44574113  0.88235689  0.17548407     1.27400
Ni435      Ni  0.36302843  0.81363462  0.14657701     1.26100
H436        H  0.33384107  0.83663422  0.10916751     0.41100
O437        O  0.19387290  0.54554403  0.20921629    -0.78900
O438        O  0.22011276  0.56731071  0.06594647    -0.63600
O439        O  0.18226165  0.57327651  0.15175837    -1.10200
C440        C  0.08446224  0.96060805  0.10057852     1.08000
O441        O  0.16349933  0.55639424  0.04697289    -0.76800
O442        O  0.10675670  0.54891944  0.08203934    -0.64400
Ni443      Ni  0.21512901  0.59187260  0.19248265     1.34900
C444        C  0.09745543  0.55379616  0.11119668     0.86700
O445        O  0.23965326  0.62375040  0.12283163    -0.77300
O446        O  0.23559495  0.63862943  0.17840655    -0.87600
C447        C  0.19357551  0.55341601  0.04168550     0.86300
O448        O  0.25895032  0.58609684  0.17724472    -0.65800
O449        O  0.08762979  0.97537628  0.07509469    -0.85100
C450        C  0.26519806  0.57324269  0.14865905     0.87100
C451        C  0.24528034  0.64712227  0.15009137     1.08700
H452        H  0.17267501  0.50676634  0.09409951     0.40500
O453        O  0.16222177  0.52433050  0.09875064    -1.07700
O454        O  0.10666825  0.54131801  0.13499694    -0.64400
Ni455      Ni  0.14509542  0.52349417  0.14168555     1.26300
O456        O  0.23906495  0.55675979  0.12410414    -0.64600
O457        O  0.10736778  0.97430187  0.12767854    -0.76900
C458        C  0.15828540  0.52525670  0.21020498     0.86500
O459        O  0.13331581  0.52205294  0.18717632    -0.64100
Ni460      Ni  0.12631245  0.51629649  0.06151758     1.27400
Ni461      Ni  0.20261082  0.57313294  0.10988822     1.26100
H462        H  0.16926889  0.58873922  0.15227611     0.41100
O463        O  0.37932301  0.92229299  0.46066659    -0.78900
O464        O  0.36247531  0.88658049  0.31299238    -0.63000
O465        O  0.34703165  0.92177261  0.39916581    -1.10200
C466        C  0.24798983  0.81108243  0.39565258     1.08000
O467        O  0.30413257  0.84108468  0.29532752    -0.76800
O468        O  0.26961216  0.87569594  0.33777177    -0.64400
Ni469      Ni  0.38702318  0.95628260  0.43123186     1.34900
C470        C  0.26300493  0.89074605  0.36524192     0.86700
O471        O  0.38545924  0.95446473  0.35023497    -0.77300
O472        O  0.39517385  0.99018227  0.40193469    -0.87600
C473        C  0.33861892  0.85963680  0.29156595     0.86300
O474        O  0.42845000  0.94814247  0.41459256    -0.65800
O475        O  0.24308659  0.81577463  0.36624747    -0.85100
C476        C  0.43043399  0.92532126  0.39056369     0.87100
C477        C  0.39571739  0.98547899  0.37009330     1.08700
H478        H  0.33561557  0.84233619  0.36415834     0.40500
O479        O  0.32218043  0.85731973  0.36349333    -1.07700
O480        O  0.27296148  0.88634458  0.39395801    -0.64400
Ni481      Ni  0.31499104  0.87519456  0.40739234     1.26300
O482        O  0.40133940  0.90163099  0.37063960    -0.64600
O483        O  0.27990449  0.82795470  0.41383309    -0.76900
C484        C  0.34758682  0.90115830  0.46905160     0.86500
O485        O  0.31615153  0.89470783  0.45293920    -0.64100
Ni486      Ni  0.27647425  0.83181847  0.33303428     1.27400
Ni487      Ni  0.35540515  0.90539373  0.35621280     1.26100
H488        H  0.33194301  0.93474141  0.39619463     0.41100
O489        O  0.13235514  0.94168731  0.29116591    -0.78900
O490        O  0.15753959  0.95169713  0.44066506    -0.63600
O491        O  0.10260002  0.93051040  0.35343503    -1.10200
C492        C  0.11309981  0.54720792  0.38311015     1.08000
O493        O  0.11655518  0.97055938  0.45930738    -0.76800
O494        O  0.06088411  0.96640534  0.41659908    -0.64400
Ni495      Ni  0.11007907  0.90162779  0.31600555     1.34900
C496        C  0.04363160  0.95886194  0.38735954     0.86700
O497        O  0.11641728  0.88665634  0.39287005    -0.77300
O498        O  0.08808008  0.86105983  0.33929553    -0.87600
C499        C  0.14875610  0.97076457  0.46364943     0.86300
O500        O  0.15943914  0.90706835  0.33138036    -0.65800
O501        O  0.10476931  0.53716662  0.41075358    -0.85100
C502        C  0.18331364  0.92723651  0.35668475     0.87100
C503        C  0.09505967  0.85896203  0.36981680     1.08700
H504        H  0.16197332  0.00399013  0.40210210     0.40500
O505        O  0.13519001  0.98732245  0.39918700    -1.07700
O506        O  0.06120100  0.96812495  0.36209802    -0.64400
Ni507      Ni  0.11428283  0.98063168  0.35442491     1.26300
O508        O  0.17648833  0.94794850  0.37962496    -0.64600
O509        O  0.12432856  0.53080460  0.35969373    -0.76900
C510        C  0.12107378  0.96598194  0.28672411     0.86500
O511        O  0.10040125  0.97410783  0.30700755    -0.64100
Ni512      Ni  0.11108690  0.00314522  0.43400091     1.27400
Ni513      Ni  0.12847244  0.93804752  0.39658250     1.26100
H514        H  0.07585581  0.91749630  0.35539750     0.41100
O515        O  0.06760927  0.65564255  0.29895164    -0.78900
O516        O  0.00799773  0.63735601  0.43377273    -0.63600
O517        O  0.02375967  0.65760258  0.34663605    -1.10200
C518        C  0.14096121  0.74923363  0.40750012     1.08000
O519        O  0.02159404  0.69544915  0.45454790    -0.76800
O520        O  0.06631576  0.75638701  0.42448247    -0.64400
Ni521      Ni  0.02288148  0.62037954  0.31080615     1.34900
C522        C  0.05867752  0.75841511  0.39446998     0.86700
O523        O  0.46783374  0.60572594  0.37354439    -0.77300
O524        O  0.47866907  0.58242798  0.32296163    -0.87600
C525        C  0.00467599  0.66128221  0.45575104     0.86300
O526        O  0.05642378  0.60818430  0.33413557    -0.65800
O527        O  0.12593778  0.74223648  0.43440234    -0.85100
C528        C  0.05935453  0.60518443  0.36410976     0.87100
C529        C  0.45928872  0.58045365  0.34767829     1.08700
H530        H  0.08322247  0.67444713  0.40644330     0.40500
O531        O  0.06538100  0.68447435  0.40293266    -1.07700
O532        O  0.04929949  0.73161077  0.37003908    -0.64400
Ni533      Ni  0.07264200  0.69902825  0.36094925     1.26300
O534        O  0.04005571  0.61276650  0.38592426    -0.64600
O535        O  0.12253687  0.73826911  0.37787422    -0.76900
C536        C  0.06549232  0.68342618  0.29261437     0.86500
O537        O  0.07521784  0.71083887  0.31657033    -0.64100
Ni538      Ni  0.07373813  0.71913053  0.44293078     1.27400
Ni539      Ni  0.01603306  0.64552037  0.38944973     1.26100
H540        H  0.00513177  0.66574291  0.34011862     0.41100
C541        C  0.06548571  0.79366541  0.38696686    -0.11300
C542        C  0.07783667  0.82334623  0.37896735    -0.12800
C543        C  0.08531222  0.59152481  0.37288615    -0.11300
C544        C  0.10365262  0.57531371  0.37708260    -0.12800
C545        C  0.41036954  0.51737492  0.35607991    -0.11300
C546        C  0.42876358  0.54620275  0.34862538    -0.12800
C547        C  0.21443490  0.78842956  0.40839640    -0.11300
C548        C  0.18135063  0.77048661  0.41064628    -0.12800
C549        C  0.21783686  0.92305824  0.36079941    -0.11300
C550        C  0.24107850  0.91121490  0.36355751    -0.12800
C551        C  0.46828265  0.92910219  0.38501349    -0.11300
C552        C  0.50231934  0.94033912  0.38361217    -0.12800
C553        C  0.14571981  0.50427062  0.23727489    -0.11300
C554        C  0.13410546  0.98639146  0.25934421    -0.12800
C555        C  0.17626732  0.99808722  0.49097103    -0.11300
C556        C  0.19088435  0.52465087  0.01401630    -0.12800
C557        C  0.35211266  0.86064204  0.01095127    -0.11300
C558        C  0.34815683  0.87897621  0.49237410    -0.12800
C559        C  0.35183967  0.84819767  0.26213390    -0.11300
C560        C  0.36639268  0.84054622  0.23878008    -0.12800
C561        C  0.27674127  0.71592464  0.14257206    -0.11300
C562        C  0.26264020  0.68530881  0.14822392    -0.12800
C563        C  0.01907653  0.90880257  0.10364926    -0.11300
C564        C  0.05063036  0.92871667  0.09983541    -0.12800
C565        C  0.51604118  0.66491232  0.23954004    -0.11300
C566        C  0.04038223  0.67773876  0.26339617    -0.12800
C567        C  0.98098492  0.64849180  0.48204627    -0.11300
C568        C  0.46298032  0.63343900  0.00337712    -0.12800
C569        C  0.40360892  0.74456118  0.09146829    -0.11300
C570        C  0.41938979  0.72540771  0.09479939    -0.12800
C571        C  0.42177419  0.99009759  0.13778908    -0.11300
C572        C  0.41636565  0.96005020  0.14249585    -0.12800
C573        C  0.30438597  0.58200488  0.14285570    -0.11300
C574        C  0.33777325  0.59643975  0.13834396    -0.12800
C575        C  0.05053967  0.58519628  0.11533872    -0.11300
C576        C  0.07397849  0.57316734  0.11638108    -0.12800
O577        O  0.46191488  0.59341065  0.53863937    -0.78900
O578        O  0.48633525  0.62363751  0.68862840    -0.63600
O579        O  0.43363772  0.58982744  0.60056337    -1.10200
C580        C  0.43198638  0.70107511  0.60724319     1.08000
O581        O  0.46940939  0.66888038  0.70634569    -0.76800
O582        O  0.40007250  0.63395827  0.66371073    -0.64400
Ni583      Ni  0.44256166  0.55776470  0.56729390     1.34900
C584        C  0.37791245  0.61863296  0.63619089     0.86700
O585        O  0.44752417  0.55467980  0.64816064    -0.77300
O586        O  0.42423034  0.52160402  0.59502723    -0.87600
C587        C  0.48861081  0.65110357  0.71008789     0.86300
O588        O  0.99291400  0.56753659  0.58406345    -0.65800
O589        O  0.42395282  0.69478787  0.63609512    -0.85100
C590        C  0.01582621  0.58900494  0.60941788     0.87100
C591        C  0.43133039  0.52413914  0.62661529     1.08700
H592        H  0.49383200  0.66871709  0.63796774     0.40500
O593        O  0.46712139  0.65327087  0.63823712    -1.07700
O594        O  0.38965444  0.62376585  0.60740843    -0.64400
Ni595      Ni  0.44149886  0.63696466  0.59390957     1.26300
O596        O  0.00813850  0.61093024  0.63040352    -0.64600
O597        O  0.44783312  0.68469397  0.58909055    -0.76900
C598        C  0.44739292  0.61380820  0.53005177     0.86500
O599        O  0.42338248  0.62021433  0.54714787    -0.64100
Ni600      Ni  0.44618674  0.67821581  0.66891427     1.27400
Ni601      Ni  0.45923937  0.60489299  0.64431556     1.26100
H602        H  0.40712768  0.57595125  0.60282492     0.41100
O603        O  0.33623957  0.81073451  0.53715070    -0.78900
O604        O  0.37906734  0.81132264  0.69005939    -0.63600
O605        O  0.34885086  0.82302206  0.60549449    -1.10200
C606        C  0.48350931  0.89362000  0.61578175     1.08000
O607        O  0.40740475  0.87218340  0.70477983    -0.76800
O608        O  0.43741266  0.92266175  0.66565555    -0.64400
Ni609      Ni  0.32304610  0.78063815  0.57073279     1.34900
C610        C  0.41546220  0.92467237  0.64319851     0.86700
O611        O  0.31256116  0.77970565  0.65099981    -0.77300
O612        O  0.30296786  0.74593699  0.59997367    -0.87600
C613        C  0.38649308  0.84088535  0.71077415     0.86300
O614        O  0.36810805  0.77257819  0.57070987    -0.65800
O615        O  0.48461870  0.89270378  0.64689111    -0.85100
C616        C  0.38153118  0.76512315  0.59606682     0.87100
C617        C  0.29709937  0.74912323  0.63057394     1.08700
H618        H  0.42691953  0.83020961  0.63515774     0.40500
O619        O  0.41307362  0.84467776  0.64036249    -1.07700
O620        O  0.39487699  0.89766442  0.61988942    -0.64400
Ni621      Ni  0.40068680  0.85457462  0.59990246     1.26300
O622        O  0.37476652  0.77367510  0.62606301    -0.64600
O623        O  0.45327534  0.88364008  0.59568568    -0.76900
C624        C  0.35901422  0.84381386  0.53677744     0.86500
O625        O  0.38660312  0.86395845  0.55912867    -0.64100
Ni626      Ni  0.44574115  0.88235692  0.67548416     1.27400
Ni627      Ni  0.36302837  0.81363466  0.64657704     1.26100
H628        H  0.33384095  0.83663439  0.60916746     0.41100
O629        O  0.19387291  0.54554413  0.70921634    -0.78900
O630        O  0.22011274  0.56731067  0.56594646    -0.63600
O631        O  0.18226167  0.57327646  0.65175834    -1.10200
C632        C  0.08446221  0.96060809  0.60057849     1.08000
O633        O  0.16349932  0.55639426  0.54697285    -0.76800
O634        O  0.10675670  0.54891948  0.58203934    -0.64400
Ni635      Ni  0.21512900  0.59187266  0.69248267     1.34900
C636        C  0.09745543  0.55379618  0.61119669     0.86700
O637        O  0.23965329  0.62375038  0.62283167    -0.77300
O638        O  0.23559492  0.63862946  0.67840656    -0.87600
C639        C  0.19357551  0.55341605  0.54168549     0.86300
O640        O  0.25895034  0.58609694  0.67724475    -0.65800
O641        O  0.08762977  0.97537626  0.57509464    -0.85100
C642        C  0.26519807  0.57324270  0.64865910     0.87100
C643        C  0.24528032  0.64712228  0.65009138     1.08700
H644        H  0.17267498  0.50676631  0.59409951     0.40500
O645        O  0.16222177  0.52433046  0.59875061    -1.07700
O646        O  0.10666822  0.54131796  0.63499690    -0.64400
Ni647      Ni  0.14509540  0.52349413  0.64168550     1.26300
O648        O  0.23906499  0.55675979  0.62410418    -0.64600
O649        O  0.10736776  0.97430197  0.62767850    -0.76900
C650        C  0.15828540  0.52525671  0.71020494     0.86500
O651        O  0.13331582  0.52205298  0.68717627    -0.64100
Ni652      Ni  0.12631243  0.51629648  0.56151757     1.27400
Ni653      Ni  0.20261084  0.57313289  0.60988823     1.26100
H654        H  0.16926891  0.58873916  0.65227598     0.41100
O655        O  0.37932294  0.92229293  0.96066658    -0.78900
O656        O  0.36247532  0.88658035  0.81299240    -0.63000
O657        O  0.34703154  0.92177258  0.89916576    -1.10200
C658        C  0.24798978  0.81108233  0.89565261     1.08000
O659        O  0.30413248  0.84108471  0.79532749    -0.76800
O660        O  0.26961210  0.87569588  0.83777178    -0.64400
Ni661      Ni  0.38702310  0.95628254  0.93123185     1.34900
C662        C  0.26300489  0.89074601  0.86524194     0.86700
O663        O  0.38545919  0.95446470  0.85023493    -0.77300
O664        O  0.39517382  0.99018221  0.90193470    -0.87600
C665        C  0.33861887  0.85963672  0.79156595     0.86300
O666        O  0.42845000  0.94814251  0.91459260    -0.65800
O667        O  0.24308657  0.81577455  0.86624751    -0.85100
C668        C  0.43043400  0.92532127  0.89056377     0.87100
C669        C  0.39571736  0.98547897  0.87009331     1.08700
H670        H  0.33561550  0.84233610  0.86415839     0.40500
O671        O  0.32218039  0.85731966  0.86349334    -1.07700
O672        O  0.27296140  0.88634449  0.89395802    -0.64400
Ni673      Ni  0.31499097  0.87519452  0.90739233     1.26300
O674        O  0.40133939  0.90163096  0.87063971    -0.64600
O675        O  0.27990443  0.82795462  0.91383315    -0.76900
C676        C  0.34758676  0.90115824  0.96905158     0.86500
O677        O  0.31615147  0.89470776  0.95293918    -0.64100
Ni678      Ni  0.27647421  0.83181842  0.83303430     1.27400
Ni679      Ni  0.35540510  0.90539368  0.85621278     1.26100
H680        H  0.33194237  0.93474185  0.89619438     0.41100
O681        O  0.13235516  0.94168731  0.79116596    -0.78900
O682        O  0.15753964  0.95169724  0.94066503    -0.63600
O683        O  0.10260014  0.93051042  0.85343506    -1.10200
C684        C  0.11309982  0.54720788  0.88311017     1.08000
O685        O  0.11655511  0.97055929  0.95930736    -0.76800
O686        O  0.06088408  0.96640542  0.91659909    -0.64400
Ni687      Ni  0.11007908  0.90162779  0.81600559     1.34900
C688        C  0.04363160  0.95886196  0.88735953     0.86700
O689        O  0.11641726  0.88665636  0.89287015    -0.77300
O690        O  0.08808008  0.86105983  0.83929562    -0.87600
C691        C  0.14875606  0.97076455  0.96364943     0.86300
O692        O  0.15943916  0.90706842  0.83138033    -0.65800
O693        O  0.10476927  0.53716657  0.91075356    -0.85100
C694        C  0.18331365  0.92723655  0.85668474     0.87100
C695        C  0.09505965  0.85896202  0.86981690     1.08700
H696        H  0.16197337  0.00399023  0.90210212     0.40500
O697        O  0.13519007  0.98732250  0.89918698    -1.07700
O698        O  0.06120103  0.96812487  0.86209800    -0.64400
Ni699      Ni  0.11428291  0.98063170  0.85442490     1.26300
O700        O  0.17648836  0.94794853  0.87962498    -0.64600
O701        O  0.12432856  0.53080455  0.85969375    -0.76900
C702        C  0.12107373  0.96598188  0.78672410     0.86500
O703        O  0.10040121  0.97410776  0.80700754    -0.64100
Ni704      Ni  0.11108689  0.00314520  0.93400090     1.27400
Ni705      Ni  0.12847251  0.93804758  0.89658252     1.26100
H706        H  0.07585650  0.91749658  0.85539754     0.41100
O707        O  0.06760931  0.65564264  0.79895169    -0.78900
O708        O  0.00799777  0.63735608  0.93377273    -0.63600
O709        O  0.02375966  0.65760255  0.84663599    -1.10200
C710        C  0.14096119  0.74923361  0.90750017     1.08000
O711        O  0.02159409  0.69544919  0.95454800    -0.76800
O712        O  0.06631571  0.75638698  0.92448253    -0.64400
Ni713      Ni  0.02288148  0.62037953  0.81080609     1.34900
C714        C  0.05867746  0.75841505  0.89447003     0.86700
O715        O  0.46783377  0.60572589  0.87354441    -0.77300
O716        O  0.47866903  0.58242801  0.82296158    -0.87600
C717        C  0.00467607  0.66128225  0.95575111     0.86300
O718        O  0.05642370  0.60818422  0.83413561    -0.65800
O719        O  0.12593777  0.74223660  0.93440241    -0.85100
C720        C  0.05935449  0.60518439  0.86410983     0.87100
C721        C  0.45928871  0.58045365  0.84767827     1.08700
H722        H  0.08322303  0.67444688  0.90644341     0.40500
O723        O  0.06538109  0.68447435  0.90293267    -1.07700
O724        O  0.04929942  0.73161070  0.87003915    -0.64400
Ni725      Ni  0.07264202  0.69902826  0.86094922     1.26300
O726        O  0.04005565  0.61276646  0.88592431    -0.64600
O727        O  0.12253687  0.73826909  0.87787425    -0.76900
C728        C  0.06549233  0.68342625  0.79261436     0.86500
O729        O  0.07521784  0.71083898  0.81657030    -0.64100
Ni730      Ni  0.07373816  0.71913057  0.94293083     1.27400
Ni731      Ni  0.01603311  0.64552039  0.88944973     1.26100
H732        H  0.00513160  0.66574288  0.84011844     0.41100
C733        C  0.06548565  0.79366535  0.88696692    -0.11300
C734        C  0.07783663  0.82334618  0.87896742    -0.12800
C735        C  0.08531225  0.59152484  0.87288624    -0.11300
C736        C  0.10365262  0.57531369  0.87708266    -0.12800
C737        C  0.41036954  0.51737501  0.85607994    -0.11300
C738        C  0.42876356  0.54620276  0.84862529    -0.12800
C739        C  0.21443484  0.78842943  0.90839637    -0.11300
C740        C  0.18135058  0.77048651  0.91064630    -0.12800
C741        C  0.21783687  0.92305827  0.86079936    -0.11300
C742        C  0.24107847  0.91121490  0.86355752    -0.12800
C743        C  0.46828268  0.92910224  0.88501355    -0.11300
C744        C  0.50231936  0.94033914  0.88361219    -0.12800
C745        C  0.14571976  0.50427058  0.73727480    -0.11300
C746        C  0.13410534  0.98639133  0.75934413    -0.12800
C747        C  0.17626732  0.99808727  0.99097097    -0.11300
C748        C  0.19088432  0.52465086  0.51401635    -0.12800
C749        C  0.35211263  0.86064202  0.51095129    -0.11300
C750        C  0.34815680  0.87897619  0.99237407    -0.12800
C751        C  0.35183961  0.84819758  0.76213391    -0.11300
C752        C  0.36639260  0.84054619  0.73878006    -0.12800
C753        C  0.27674132  0.71592468  0.64257210    -0.11300
C754        C  0.26264019  0.68530884  0.64822394    -0.12800
C755        C  0.01907652  0.90880254  0.60364927    -0.11300
C756        C  0.05063033  0.92871672  0.59983543    -0.12800
C757        C  0.51604119  0.66491237  0.73954002    -0.11300
C758        C  0.04038221  0.67773877  0.76339618    -0.12800
C759        C  0.98098496  0.64849176  0.98204632    -0.11300
C760        C  0.46298031  0.63343899  0.50337703    -0.12800
C761        C  0.40360892  0.74456118  0.59146833    -0.11300
C762        C  0.41938994  0.72540784  0.59479942    -0.12800
C763        C  0.42177421  0.99009760  0.63778912    -0.11300
C764        C  0.41636568  0.96005020  0.64249582    -0.12800
C765        C  0.30438596  0.58200480  0.64285577    -0.11300
C766        C  0.33777325  0.59643967  0.63834402    -0.12800
C767        C  0.05053960  0.58519618  0.61533876    -0.11300
C768        C  0.07397845  0.57316729  0.61638114    -0.12800
O769        O  0.96191488  0.09341060  0.03863938    -0.78900
O770        O  0.98633521  0.12363743  0.18862841    -0.63600
O771        O  0.93363777  0.08982743  0.10056335    -1.10200
C772        C  0.93198632  0.20107510  0.10724320     1.08000
O773        O  0.96940945  0.16888037  0.20634564    -0.76800
O774        O  0.90007251  0.13395826  0.16371070    -0.64400
Ni775      Ni  0.94256162  0.05776465  0.06729387     1.34900
C776        C  0.87791248  0.11863297  0.13619086     0.86700
O777        O  0.94752418  0.05467977  0.14816064    -0.77300
O778        O  0.92423028  0.02160399  0.09502723    -0.87600
C779        C  0.98861084  0.15110355  0.21008786     0.86300
O780        O  0.49291390  0.06753653  0.08406346    -0.65800
O781        O  0.92395284  0.19478794  0.13609516    -0.85100
C782        C  0.51582616  0.08900489  0.10941786     0.87100
C783        C  0.93133040  0.02413911  0.12661528     1.08700
H784        H  0.99383192  0.16871705  0.13796771     0.40500
O785        O  0.96712133  0.15327082  0.13823711    -1.07700
O786        O  0.88965445  0.12376583  0.10740840    -0.64400
Ni787      Ni  0.94149886  0.13696463  0.09390957     1.26300
O788        O  0.50813856  0.11093029  0.13040348    -0.64600
O789        O  0.94783307  0.18469393  0.08909057    -0.76900
C790        C  0.94739296  0.11380820  0.03005183     0.86500
O791        O  0.92338249  0.12021429  0.04714790    -0.64100
Ni792      Ni  0.94618673  0.17821580  0.16891426     1.27400
Ni793      Ni  0.95923936  0.10489296  0.14431556     1.26100
H794        H  0.90712776  0.07595128  0.10282487     0.41100
O795        O  0.83623952  0.31073452  0.03715066    -0.78900
O796        O  0.87906729  0.31132260  0.19005933    -0.63600
O797        O  0.84885086  0.32302209  0.10549448    -1.10200
C798        C  0.98350930  0.39362010  0.11578174     1.08000
O799        O  0.90740466  0.37218338  0.20477974    -0.76800
O800        O  0.93741278  0.42266181  0.16565542    -0.64400
Ni801      Ni  0.82304604  0.28063821  0.07073277     1.34900
C802        C  0.91546216  0.42467234  0.14319847     0.86700
O803        O  0.81256121  0.27970562  0.15099986    -0.77300
O804        O  0.80296778  0.24593706  0.09997365    -0.87600
C805        C  0.88649302  0.34088532  0.21077410     0.86300
O806        O  0.86810797  0.27257818  0.07070983    -0.65800
O807        O  0.98461873  0.39270375  0.14689106    -0.85100
C808        C  0.88153116  0.26512320  0.09606679     0.87100
C809        C  0.79709939  0.24912323  0.13057396     1.08700
H810        H  0.92691970  0.33020939  0.13515768     0.40500
O811        O  0.91307363  0.34467774  0.14036244    -1.07700
O812        O  0.89487696  0.39766437  0.11988942    -0.64400
Ni813      Ni  0.90068679  0.35457461  0.09990243     1.26300
O814        O  0.87476645  0.27367511  0.12606297    -0.64600
O815        O  0.95327533  0.38364019  0.09568568    -0.76900
C816        C  0.85901420  0.34381387  0.03677741     0.86500
O817        O  0.88660309  0.36395843  0.05912864    -0.64100
Ni818      Ni  0.94574114  0.38235693  0.17548409     1.27400
Ni819      Ni  0.86302837  0.31363469  0.14657702     1.26100
H820        H  0.83384060  0.33663479  0.10916762     0.41100
O821        O  0.69387295  0.04554404  0.20921630    -0.78900
O822        O  0.72011278  0.06731071  0.06594647    -0.63600
O823        O  0.68226160  0.07327637  0.15175834    -1.10200
C824        C  0.58446220  0.46060814  0.10057853     1.08000
O825        O  0.66349937  0.05639429  0.04697290    -0.76800
O826        O  0.60675667  0.04891947  0.08203937    -0.64400
Ni827      Ni  0.71512895  0.09187258  0.19248264     1.34900
C828        C  0.59745535  0.05379608  0.11119670     0.86700
O829        O  0.73965319  0.12375031  0.12283164    -0.77300
O830        O  0.73559480  0.13862938  0.17840653    -0.87600
C831        C  0.69357554  0.05341603  0.04168552     0.86300
O832        O  0.75895031  0.08609692  0.17724471    -0.65800
O833        O  0.58762978  0.47537631  0.07509468    -0.85100
C834        C  0.76519809  0.07324276  0.14865906     0.87100
C835        C  0.74528021  0.14712220  0.15009136     1.08700
H836        H  0.67267493  0.00676626  0.09409941     0.40500
O837        O  0.66222174  0.02433041  0.09875059    -1.07700
O838        O  0.60666816  0.04131785  0.13499691    -0.64400
Ni839      Ni  0.64509540  0.02349409  0.14168553     1.26300
O840        O  0.73906498  0.05675977  0.12410415    -0.64600
O841        O  0.60736774  0.47430198  0.12767855    -0.76900
C842        C  0.65828544  0.02525672  0.21020499     0.86500
O843        O  0.63331585  0.02205295  0.18717633    -0.64100
Ni844      Ni  0.62631243  0.01629653  0.06151758     1.27400
Ni845      Ni  0.70261079  0.07313285  0.10988821     1.26100
H846        H  0.66926866  0.08873909  0.15227604     0.41100
O847        O  0.87932286  0.42229292  0.46066658    -0.78900
O848        O  0.86247535  0.38658029  0.31299246    -0.63000
O849        O  0.84703149  0.42177261  0.39916580    -1.10200
C850        C  0.74798981  0.31108226  0.39565256     1.08000
O851        O  0.80413251  0.34108474  0.29532751    -0.76800
O852        O  0.76961209  0.37569593  0.33777181    -0.64400
Ni853      Ni  0.88702310  0.45628251  0.43123183     1.34900
C854        C  0.76300487  0.39074605  0.36524197     0.86700
O855        O  0.88545916  0.45446461  0.35023493    -0.77300
O856        O  0.89517391  0.49018217  0.40193468    -0.87600
C857        C  0.83861890  0.35963671  0.29156598     0.86300
O858        O  0.92844996  0.44814244  0.41459254    -0.65800
O859        O  0.74308659  0.31577446  0.36624745    -0.85100
C860        C  0.93043401  0.42532125  0.39056369     0.87100
C861        C  0.89571739  0.48547889  0.37009329     1.08700
H862        H  0.83561520  0.34233647  0.36415848     0.40500
O863        O  0.82218035  0.35731971  0.36349338    -1.07700
O864        O  0.77296139  0.38634456  0.39395805    -0.64400
Ni865      Ni  0.81499091  0.37519457  0.40739236     1.26300
O866        O  0.90133939  0.40163090  0.37063966    -0.64600
O867        O  0.77990444  0.32795462  0.41383311    -0.76900
C868        C  0.84758670  0.40115822  0.46905160     0.86500
O869        O  0.81615139  0.39470771  0.45293922    -0.64100
Ni870      Ni  0.77647422  0.33181846  0.33303428     1.27400
Ni871      Ni  0.85540509  0.40539368  0.35621281     1.26100
H872        H  0.83194241  0.43474186  0.39619448     0.41100
O873        O  0.63235504  0.44168722  0.29116586    -0.78900
O874        O  0.65753953  0.45169715  0.44066505    -0.63600
O875        O  0.60260013  0.43051045  0.35343501    -1.10200
C876        C  0.61309977  0.04720786  0.38311012     1.08000
O877        O  0.61655517  0.47055941  0.45930741    -0.76800
O878        O  0.56088413  0.46640547  0.41659911    -0.64400
Ni879      Ni  0.61007900  0.40162774  0.31600554     1.34900
C880        C  0.54363163  0.45886198  0.38735954     0.86700
O881        O  0.61641719  0.38665632  0.39287006    -0.77300
O882        O  0.58807996  0.36105979  0.33929555    -0.87600
C883        C  0.64875609  0.47076461  0.46364943     0.86300
O884        O  0.65943908  0.40706837  0.33138037    -0.65800
O885        O  0.60476917  0.03716651  0.41075351    -0.85100
C886        C  0.68331359  0.42723656  0.35668475     0.87100
C887        C  0.59505956  0.35896199  0.36981683     1.08700
H888        H  0.66197303  0.50398998  0.40210209     0.40500
O889        O  0.63519002  0.48732248  0.39918700    -1.07700
O890        O  0.56120104  0.46812487  0.36209799    -0.64400
Ni891      Ni  0.61428291  0.48063174  0.35442491     1.26300
O892        O  0.67648828  0.44794855  0.37962497    -0.64600
O893        O  0.62432862  0.03080457  0.35969376    -0.76900
C894        C  0.62107373  0.46598190  0.28672410     0.86500
O895        O  0.60040131  0.47410789  0.30700758    -0.64100
Ni896      Ni  0.61108696  0.50314526  0.43400092     1.27400
Ni897      Ni  0.62847242  0.43804753  0.39658250     1.26100
H898        H  0.57585649  0.41749665  0.35539745     0.41100
O899        O  0.56760930  0.15564264  0.29895164    -0.78900
O900        O  0.50799777  0.13735607  0.43377275    -0.63600
O901        O  0.52375967  0.15760261  0.34663607    -1.10200
C902        C  0.64096116  0.24923369  0.40750012     1.08000
O903        O  0.52159403  0.19544919  0.45454788    -0.76800
O904        O  0.56631563  0.25638692  0.42448245    -0.64400
Ni905      Ni  0.52288149  0.12037960  0.31080615     1.34900
C906        C  0.55867741  0.25841500  0.39446996     0.86700
O907        O  0.96783378  0.10572594  0.37354440    -0.77300
O908        O  0.97866912  0.08242801  0.32296164    -0.87600
C909        C  0.50467601  0.16128227  0.45575105     0.86300
O910        O  0.55642376  0.10818436  0.33413558    -0.65800
O911        O  0.62593777  0.24223651  0.43440235    -0.85100
C912        C  0.55935452  0.10518447  0.36410977     0.87100
C913        C  0.95928877  0.08045367  0.34767829     1.08700
H914        H  0.58322300  0.17444697  0.40644335     0.40500
O915        O  0.56538108  0.18447436  0.40293267    -1.07700
O916        O  0.54929931  0.23161063  0.37003910    -0.64400
Ni917      Ni  0.57264199  0.19902828  0.36094925     1.26300
O918        O  0.54005569  0.11276652  0.38592427    -0.64600
O919        O  0.62253681  0.23826921  0.37787422    -0.76900
C920        C  0.56549231  0.18342625  0.29261437     0.86500
O921        O  0.57521775  0.21083892  0.31657035    -0.64100
Ni922      Ni  0.57373813  0.21913054  0.44293078     1.27400
Ni923      Ni  0.51603312  0.14552041  0.38944975     1.26100
H924        H  0.50513172  0.16574292  0.34011866     0.41100
C925        C  0.56548572  0.29366532  0.38696683    -0.11300
C926        C  0.57783661  0.32334616  0.37896735    -0.12800
C927        C  0.58531220  0.09152481  0.37288614    -0.11300
C928        C  0.60365257  0.07531366  0.37708257    -0.12800
C929        C  0.91036961  0.01737500  0.35607991    -0.11300
C930        C  0.92876362  0.04620278  0.34862533    -0.12800
C931        C  0.71443486  0.28842945  0.40839637    -0.11300
C932        C  0.68135057  0.27048664  0.41064626    -0.12800
C933        C  0.71783682  0.42305829  0.36079944    -0.11300
C934        C  0.74107846  0.41121495  0.36355757    -0.12800
C935        C  0.96828270  0.42910223  0.38501350    -0.11300
C936        C  0.00231938  0.44033916  0.38361215    -0.12800
C937        C  0.64571981  0.00427066  0.23727490    -0.11300
C938        C  0.63410538  0.48639142  0.25934420    -0.12800
C939        C  0.67626735  0.49808724  0.49097103    -0.11300
C940        C  0.69088437  0.02465086  0.01401634    -0.12800
C941        C  0.85211266  0.36064197  0.01095121    -0.11300
C942        C  0.84815681  0.37897622  0.49237412    -0.12800
C943        C  0.85183959  0.34819761  0.26213388    -0.11300
C944        C  0.86639257  0.34054615  0.23878004    -0.12800
C945        C  0.77674137  0.21592462  0.14257207    -0.11300
C946        C  0.76264015  0.18530877  0.14822390    -0.12800
C947        C  0.51907651  0.40880265  0.10364924    -0.11300
C948        C  0.55063033  0.42871676  0.09983541    -0.12800
C949        C  0.01604122  0.16491231  0.23954001    -0.11300
C950        C  0.54038219  0.17773880  0.26339619    -0.12800
C951        C  0.48098490  0.14849186  0.48204628    -0.11300
C952        C  0.96298037  0.13343902  0.00337712    -0.12800
C953        C  0.90360893  0.24456124  0.09146831    -0.11300
C954        C  0.91938986  0.22540781  0.09479937    -0.12800
C955        C  0.92177408  0.49009753  0.13778909    -0.11300
C956        C  0.91636554  0.46005014  0.14249582    -0.12800
C957        C  0.80438601  0.08200492  0.14285573    -0.11300
C958        C  0.83777329  0.09643974  0.13834399    -0.12800
C959        C  0.55053950  0.08519606  0.11533870    -0.11300
C960        C  0.57397834  0.07316716  0.11638111    -0.12800
O961        O  0.96191493  0.09341061  0.53863938    -0.78900
O962        O  0.98633517  0.12363737  0.68862844    -0.63600
O963        O  0.93363773  0.08982737  0.60056337    -1.10200
C964        C  0.93198636  0.20107507  0.60724316     1.08000
O965        O  0.96940955  0.16888044  0.70634567    -0.76800
O966        O  0.90007250  0.13395835  0.66371075    -0.64400
Ni967      Ni  0.94256161  0.05776462  0.56729388     1.34900
C968        C  0.87791247  0.11863299  0.63619090     0.86700
O969        O  0.94752421  0.05467976  0.64816062    -0.77300
O970        O  0.92423025  0.02160394  0.59502723    -0.87600
C971        C  0.98861086  0.15110352  0.71008788     0.86300
O972        O  0.49291393  0.06753660  0.58406344    -0.65800
O973        O  0.92395286  0.19478790  0.63609512    -0.85100
C974        C  0.51582622  0.08900499  0.60941780     0.87100
C975        C  0.93133037  0.02413909  0.62661528     1.08700
H976        H  0.99383149  0.16871672  0.63796772     0.40500
O977        O  0.96712130  0.15327077  0.63823713    -1.07700
O978        O  0.88965443  0.12376586  0.60740843    -0.64400
Ni979      Ni  0.94149882  0.13696457  0.59390956     1.26300
O980        O  0.50813856  0.11093026  0.63040352    -0.64600
O981        O  0.94783313  0.18469392  0.58909054    -0.76900
C982        C  0.94739298  0.11380818  0.53005179     0.86500
O983        O  0.92338248  0.12021422  0.54714785    -0.64100
Ni984      Ni  0.94618677  0.17821584  0.66891427     1.27400
Ni985      Ni  0.95923935  0.10489290  0.64431556     1.26100
H986        H  0.90712772  0.07595122  0.60282495     0.41100
O987        O  0.83623947  0.31073454  0.53715070    -0.78900
O988        O  0.87906726  0.31132263  0.69005939    -0.63600
O989        O  0.84885084  0.32302211  0.60549449    -1.10200
C990        C  0.98350927  0.39362005  0.61578177     1.08000
O991        O  0.90740467  0.37218342  0.70477978    -0.76800
O992        O  0.93741273  0.42266182  0.66565550    -0.64400
Ni993      Ni  0.82304606  0.28063819  0.57073279     1.34900
C994        C  0.91546219  0.42467240  0.64319851     0.86700
O995        O  0.81256116  0.27970567  0.65099980    -0.77300
O996        O  0.80296779  0.24593699  0.59997364    -0.87600
C997        C  0.88649300  0.34088536  0.71077413     0.86300
O998        O  0.86810809  0.27257829  0.57070989    -0.65800
O999        O  0.98461870  0.39270379  0.64689112    -0.85100
C1000       C  0.88153115  0.26512318  0.59606683     0.87100
C1001       C  0.79709937  0.24912324  0.63057394     1.08700
H1002       H  0.92691948  0.33020963  0.63515779     0.40500
O1003       O  0.91307360  0.34467780  0.64036251    -1.07700
O1004       O  0.89487699  0.39766445  0.61988943    -0.64400
Ni1005     Ni  0.90068677  0.35457465  0.59990248     1.26300
O1006       O  0.87476640  0.27367505  0.62606300    -0.64600
O1007       O  0.95327532  0.38364015  0.59568571    -0.76900
C1008       C  0.85901420  0.34381387  0.53677745     0.86500
O1009       O  0.88660311  0.36395842  0.55912867    -0.64100
Ni1010     Ni  0.94574113  0.38235695  0.67548416     1.27400
Ni1011     Ni  0.86302833  0.31363470  0.64657704     1.26100
H1012       H  0.83384063  0.33663476  0.60916754     0.41100
O1013       O  0.69387290  0.04554406  0.70921633    -0.78900
O1014       O  0.72011275  0.06731068  0.56594648    -0.63600
O1015       O  0.68226159  0.07327649  0.65175833    -1.10200
C1016       C  0.58446215  0.46060804  0.60057849     1.08000
O1017       O  0.66349932  0.05639428  0.54697285    -0.76800
O1018       O  0.60675653  0.04891936  0.58203933    -0.64400
Ni1019     Ni  0.71512892  0.09187261  0.69248266     1.34900
C1020       C  0.59745532  0.05379609  0.61119669     0.86700
O1021       O  0.73965323  0.12375041  0.62283166    -0.77300
O1022       O  0.73559484  0.13862945  0.67840656    -0.87600
C1023       C  0.69357551  0.05341602  0.54168550     0.86300
O1024       O  0.75895025  0.08609684  0.67724474    -0.65800
O1025       O  0.58762973  0.47537621  0.57509463    -0.85100
C1026       C  0.76519803  0.07324268  0.64865909     0.87100
C1027       C  0.74528029  0.14712230  0.65009140     1.08700
H1028       H  0.67267492  0.00676629  0.59409948     0.40500
O1029       O  0.66222176  0.02433049  0.59875060    -1.07700
O1030       O  0.60666819  0.04131795  0.63499693    -0.64400
Ni1031     Ni  0.64509543  0.02349418  0.64168550     1.26300
O1032       O  0.73906492  0.05675973  0.62410419    -0.64600
O1033       O  0.60736768  0.47430191  0.62767851    -0.76900
C1034       C  0.65828540  0.02525664  0.71020493     0.86500
O1035       O  0.63331585  0.02205292  0.68717626    -0.64100
Ni1036     Ni  0.62631242  0.01629651  0.56151756     1.27400
Ni1037     Ni  0.70261080  0.07313292  0.60988822     1.26100
H1038       H  0.66926854  0.08873948  0.65227599     0.41100
O1039       O  0.87932291  0.42229293  0.96066660    -0.78900
O1040       O  0.86247533  0.38658036  0.81299241    -0.63000
O1041       O  0.84703149  0.42177266  0.89916575    -1.10200
C1042       C  0.74798986  0.31108236  0.89565262     1.08000
O1043       O  0.80413250  0.34108469  0.79532751    -0.76800
O1044       O  0.76961219  0.37569596  0.83777180    -0.64400
Ni1045     Ni  0.88702314  0.45628256  0.93123186     1.34900
C1046       C  0.76300484  0.39074599  0.86524193     0.86700
O1047       O  0.88545914  0.45446473  0.85023491    -0.77300
O1048       O  0.89517397  0.49018226  0.90193472    -0.87600
C1049       C  0.83861889  0.35963672  0.79156597     0.86300
O1050       O  0.92845001  0.44814243  0.91459265    -0.65800
O1051       O  0.74308666  0.31577460  0.86624754    -0.85100
C1052       C  0.93043402  0.42532123  0.89056377     0.87100
C1053       C  0.89571741  0.48547899  0.87009331     1.08700
H1054       H  0.83561559  0.34233617  0.86415839     0.40500
O1055       O  0.82218043  0.35731971  0.86349335    -1.07700
O1056       O  0.77296133  0.38634447  0.89395802    -0.64400
Ni1057     Ni  0.81499097  0.37519459  0.90739234     1.26300
O1058       O  0.90133942  0.40163101  0.87063965    -0.64600
O1059       O  0.77990452  0.32795464  0.91383316    -0.76900
C1060       C  0.84758672  0.40115825  0.96905159     0.86500
O1061       O  0.81615146  0.39470784  0.95293919    -0.64100
Ni1062     Ni  0.77647425  0.33181846  0.83303431     1.27400
Ni1063     Ni  0.85540510  0.40539371  0.85621277     1.26100
H1064       H  0.83194232  0.43474192  0.89619437     0.41100
O1065       O  0.63235530  0.44168741  0.79116598    -0.78900
O1066       O  0.65753959  0.45169710  0.94066506    -0.63600
O1067       O  0.60260013  0.43051040  0.85343504    -1.10200
C1068       C  0.61309980  0.04720791  0.88311017     1.08000
O1069       O  0.61655519  0.47055935  0.95930737    -0.76800
O1070       O  0.56088411  0.46640540  0.91659911    -0.64400
Ni1071     Ni  0.61007912  0.40162783  0.81600557     1.34900
C1072       C  0.54363160  0.45886192  0.88735954     0.86700
O1073       O  0.61641724  0.38665632  0.89287014    -0.77300
O1074       O  0.58808004  0.36105989  0.83929561    -0.87600
C1075       C  0.64875610  0.47076453  0.96364943     0.86300
O1076       O  0.65943910  0.40706831  0.83138034    -0.65800
O1077       O  0.60476921  0.03716656  0.91075356    -0.85100
C1078       C  0.68331358  0.42723645  0.85668473     0.87100
C1079       C  0.59505958  0.35896204  0.86981689     1.08700
H1080       H  0.66197259  0.50398965  0.90210201     0.40500
O1081       O  0.63519000  0.48732241  0.89918698    -1.07700
O1082       O  0.56120099  0.46812489  0.86209801    -0.64400
Ni1083     Ni  0.61428284  0.48063166  0.85442490     1.26300
O1084       O  0.67648829  0.44794844  0.87962497    -0.64600
O1085       O  0.62432860  0.03080460  0.85969377    -0.76900
C1086       C  0.62107380  0.46598194  0.78672410     0.86500
O1087       O  0.60040128  0.47410781  0.80700754    -0.64100
Ni1088     Ni  0.61108693  0.50314521  0.93400090     1.27400
Ni1089     Ni  0.62847243  0.43804747  0.89658252     1.26100
H1090       H  0.57585647  0.41749657  0.85539748     0.41100
O1091       O  0.56760926  0.15564255  0.79895169    -0.78900
O1092       O  0.50799773  0.13735611  0.93377276    -0.63600
O1093       O  0.52375960  0.15760254  0.84663605    -1.10200
C1094       C  0.64096115  0.24923361  0.90750016     1.08000
O1095       O  0.52159402  0.19544925  0.95454798    -0.76800
O1096       O  0.56631568  0.25638703  0.92448252    -0.64400
Ni1097     Ni  0.52288144  0.12037954  0.81080616     1.34900
C1098       C  0.55867745  0.25841509  0.89447003     0.86700
O1099       O  0.96783376  0.10572591  0.87354439    -0.77300
O1100       O  0.97866904  0.08242802  0.82296156    -0.87600
C1101       C  0.50467599  0.16128230  0.95575109     0.86300
O1102       O  0.55642367  0.10818428  0.83413565    -0.65800
O1103       O  0.62593776  0.24223649  0.93440240    -0.85100
C1104       C  0.55935446  0.10518443  0.86410985     0.87100
C1105       C  0.95928874  0.08045366  0.84767825     1.08700
H1106       H  0.58322299  0.17444690  0.90644343     0.40500
O1107       O  0.56538104  0.18447434  0.90293270    -1.07700
O1108       O  0.54929936  0.23161071  0.87003916    -0.64400
Ni1109     Ni  0.57264193  0.19902822  0.86094926     1.26300
O1110       O  0.54005561  0.11276645  0.88592434    -0.64600
O1111       O  0.62253677  0.23826910  0.87787426    -0.76900
C1112       C  0.56549226  0.18342615  0.79261438     0.86500
O1113       O  0.57521769  0.21083884  0.81657033    -0.64100
Ni1114     Ni  0.57373812  0.21913058  0.94293083     1.27400
Ni1115     Ni  0.51603307  0.14552038  0.88944976     1.26100
H1116       H  0.50513152  0.16574288  0.84011853     0.41100
C1117       C  0.56548573  0.29366540  0.88696690    -0.11300
C1118       C  0.57783660  0.32334622  0.87896739    -0.12800
C1119       C  0.58531222  0.09152488  0.87288624    -0.11300
C1120       C  0.60365258  0.07531371  0.87708264    -0.12800
C1121       C  0.91036960  0.01737502  0.85607995    -0.11300
C1122       C  0.92876359  0.04620277  0.84862529    -0.12800
C1123       C  0.71443485  0.28842952  0.90839638    -0.11300
C1124       C  0.68135057  0.27048661  0.91064628    -0.12800
C1125       C  0.71783676  0.42305817  0.86079935    -0.11300
C1126       C  0.74107838  0.41121483  0.86355749    -0.12800
C1127       C  0.96828267  0.42910213  0.88501356    -0.11300
C1128       C  0.00231935  0.44033906  0.88361218    -0.12800
C1129       C  0.64571977  0.00427049  0.73727479    -0.11300
C1130       C  0.63410532  0.48639139  0.75934411    -0.12800
C1131       C  0.67626736  0.49808723  0.99097098    -0.11300
C1132       C  0.69088434  0.02465084  0.51401635    -0.12800
C1133       C  0.85211271  0.36064206  0.51095130    -0.11300
C1134       C  0.84815673  0.37897610  0.99237401    -0.12800
C1135       C  0.85183958  0.34819762  0.76213390    -0.11300
C1136       C  0.86639254  0.34054623  0.73878004    -0.12800
C1137       C  0.77674144  0.21592472  0.64257214    -0.11300
C1138       C  0.76264031  0.18530888  0.64822399    -0.12800
C1139       C  0.51907649  0.40880253  0.60364927    -0.11300
C1140       C  0.55063028  0.42871666  0.59983541    -0.12800
C1141       C  0.01604125  0.16491227  0.73954001    -0.11300
C1142       C  0.54038219  0.17773868  0.76339619    -0.12800
C1143       C  0.48098491  0.14849183  0.98204632    -0.11300
C1144       C  0.96298038  0.13343903  0.50337708    -0.12800
C1145       C  0.90360890  0.24456119  0.59146835    -0.11300
C1146       C  0.91938989  0.22540781  0.59479940    -0.12800
C1147       C  0.92177408  0.49009759  0.63778908    -0.11300
C1148       C  0.91636560  0.46005021  0.64249583    -0.12800
C1149       C  0.80438597  0.08200483  0.64285576    -0.11300
C1150       C  0.83777327  0.09643967  0.63834403    -0.12800
C1151       C  0.55053960  0.08519621  0.61533860    -0.11300
C1152       C  0.57397840  0.07316726  0.61638109    -0.12800
O1153       O  0.96191488  0.59341061  0.03863938    -0.78900
O1154       O  0.98633523  0.62363742  0.18862842    -0.63600
O1155       O  0.93363772  0.58982736  0.10056334    -1.10200
C1156       C  0.93198633  0.70107504  0.10724320     1.08000
O1157       O  0.96940948  0.66888037  0.20634563    -0.76800
O1158       O  0.90007244  0.63395825  0.16371073    -0.64400
Ni1159     Ni  0.94256165  0.55776464  0.06729387     1.34900
C1160       C  0.87791244  0.61863299  0.13619086     0.86700
O1161       O  0.94752410  0.55467972  0.14816065    -0.77300
O1162       O  0.92423023  0.52160396  0.09502722    -0.87600
C1163       C  0.98861084  0.65110353  0.21008786     0.86300
O1164       O  0.49291404  0.56753665  0.08406344    -0.65800
O1165       O  0.92395290  0.69478792  0.13609518    -0.85100
C1166       C  0.51582626  0.58900502  0.10941786     0.87100
C1167       C  0.93133027  0.52413906  0.12661528     1.08700
H1168       H  0.99383092  0.66871642  0.13796772     0.40500
O1169       O  0.96712128  0.65327074  0.13823711    -1.07700
O1170       O  0.88965446  0.62376586  0.10740841    -0.64400
Ni1171     Ni  0.94149879  0.63696455  0.09390957     1.26300
O1172       O  0.50813851  0.61093028  0.13040352    -0.64600
O1173       O  0.94783305  0.68469386  0.08909055    -0.76900
C1174       C  0.94739293  0.61380819  0.03005183     0.86500
O1175       O  0.92338245  0.62021424  0.04714791    -0.64100
Ni1176     Ni  0.94618672  0.67821575  0.16891426     1.27400
Ni1177     Ni  0.95923928  0.60489287  0.14431557     1.26100
H1178       H  0.90712767  0.57595120  0.10282484     0.41100
O1179       O  0.83623942  0.81073452  0.03715068    -0.78900
O1180       O  0.87906739  0.81132263  0.19005938    -0.63600
O1181       O  0.84885089  0.82302205  0.10549448    -1.10200
C1182       C  0.98350928  0.89362005  0.11578173     1.08000
O1183       O  0.90740456  0.87218340  0.20477967    -0.76800
O1184       O  0.93741268  0.92266179  0.16565546    -0.64400
Ni1185     Ni  0.82304601  0.78063815  0.07073278     1.34900
C1186       C  0.91546217  0.92467239  0.14319847     0.86700
O1187       O  0.81256118  0.77970561  0.15099985    -0.77300
O1188       O  0.80296780  0.74593700  0.09997366    -0.87600
C1189       C  0.88649309  0.84088535  0.21077412     0.86300
O1190       O  0.86810793  0.77257811  0.07070982    -0.65800
O1191       O  0.98461866  0.89270371  0.14689107    -0.85100
C1192       C  0.88153115  0.76512313  0.09606678     0.87100
C1193       C  0.79709932  0.74912321  0.13057395     1.08700
H1194       H  0.92692004  0.83020909  0.13515752     0.40500
O1195       O  0.91307366  0.84467771  0.14036242    -1.07700
O1196       O  0.89487701  0.89766445  0.11988936    -0.64400
Ni1197     Ni  0.90068686  0.85457461  0.09990241     1.26300
O1198       O  0.87476648  0.77367504  0.12606297    -0.64600
O1199       O  0.95327534  0.88364022  0.09568566    -0.76900
C1200       C  0.85901418  0.84381385  0.03677741     0.86500
O1201       O  0.88660311  0.86395839  0.05912861    -0.64100
Ni1202     Ni  0.94574107  0.88235691  0.17548407     1.27400
Ni1203     Ni  0.86302844  0.81363462  0.14657701     1.26100
H1204       H  0.83384112  0.83663425  0.10916755     0.41100
O1205       O  0.69387286  0.54554403  0.20921631    -0.78900
O1206       O  0.72011273  0.56731072  0.06594646    -0.63600
O1207       O  0.68226164  0.57327650  0.15175835    -1.10200
C1208       C  0.58446216  0.96060808  0.10057853     1.08000
O1209       O  0.66349930  0.55639424  0.04697288    -0.76800
O1210       O  0.60675671  0.54891943  0.08203934    -0.64400
Ni1211     Ni  0.71512895  0.59187260  0.19248265     1.34900
C1212       C  0.59745545  0.55379616  0.11119668     0.86700
O1213       O  0.73965329  0.62375040  0.12283164    -0.77300
O1214       O  0.73559492  0.63862943  0.17840654    -0.87600
C1215       C  0.69357549  0.55341601  0.04168550     0.86300
O1216       O  0.75895028  0.58609685  0.17724473    -0.65800
O1217       O  0.58762977  0.97537627  0.07509467    -0.85100
C1218       C  0.76519805  0.57324270  0.14865907     0.87100
C1219       C  0.74528036  0.64712227  0.15009138     1.08700
H1220       H  0.67267504  0.50676634  0.09409951     0.40500
O1221       O  0.66222180  0.52433050  0.09875063    -1.07700
O1222       O  0.60666827  0.54131801  0.13499694    -0.64400
Ni1223     Ni  0.64509544  0.52349417  0.14168554     1.26300
O1224       O  0.73906497  0.55675979  0.12410414    -0.64600
O1225       O  0.60736766  0.97430192  0.12767857    -0.76900
C1226       C  0.65828536  0.52525669  0.21020498     0.86500
O1227       O  0.63331580  0.52205293  0.18717630    -0.64100
Ni1228     Ni  0.62631246  0.51629649  0.06151758     1.27400
Ni1229     Ni  0.70261083  0.57313293  0.10988822     1.26100
H1230       H  0.66926888  0.58873920  0.15227605     0.41100
O1231       O  0.87932302  0.92229298  0.46066658    -0.78900
O1232       O  0.86247530  0.88658046  0.31299239    -0.63000
O1233       O  0.84703157  0.92177265  0.39916581    -1.10200
C1234       C  0.74798985  0.81108242  0.39565259     1.08000
O1235       O  0.80413252  0.84108474  0.29532749    -0.76800
O1236       O  0.76961213  0.87569594  0.33777178    -0.64400
Ni1237     Ni  0.88702318  0.95628260  0.43123184     1.34900
C1238       C  0.76300485  0.89074600  0.36524193     0.86700
O1239       O  0.88545911  0.95446473  0.35023494    -0.77300
O1240       O  0.89517390  0.99018229  0.40193470    -0.87600
C1241       C  0.83861889  0.85963680  0.29156594     0.86300
O1242       O  0.92845001  0.94814247  0.41459256    -0.65800
O1243       O  0.74308662  0.81577462  0.36624748    -0.85100
C1244       C  0.93043401  0.92532127  0.39056369     0.87100
C1245       C  0.89571736  0.98547900  0.37009330     1.08700
H1246       H  0.83561560  0.84233621  0.36415834     0.40500
O1247       O  0.82218045  0.85731973  0.36349333    -1.07700
O1248       O  0.77296143  0.88634455  0.39395802    -0.64400
Ni1249     Ni  0.81499103  0.87519459  0.40739234     1.26300
O1250       O  0.90133940  0.90163101  0.37063960    -0.64600
O1251       O  0.77990453  0.82795469  0.41383309    -0.76900
C1252       C  0.84758684  0.90115829  0.46905160     0.86500
O1253       O  0.81615155  0.89470783  0.45293921    -0.64100
Ni1254     Ni  0.77647426  0.83181849  0.33303428     1.27400
Ni1255     Ni  0.85540511  0.90539374  0.35621279     1.26100
H1256       H  0.83194260  0.93474171  0.39619456     0.41100
O1257       O  0.63235516  0.94168733  0.29116590    -0.78900
O1258       O  0.65753953  0.95169713  0.44066507    -0.63600
O1259       O  0.60260003  0.93051040  0.35343502    -1.10200
C1260       C  0.61309983  0.54720793  0.38311014     1.08000
O1261       O  0.61655511  0.97055937  0.45930739    -0.76800
O1262       O  0.56088412  0.96640533  0.41659907    -0.64400
Ni1263     Ni  0.61007909  0.90162779  0.31600555     1.34900
C1264       C  0.54363158  0.95886194  0.38735953     0.86700
O1265       O  0.61641727  0.88665634  0.39287005    -0.77300
O1266       O  0.58808006  0.86105983  0.33929553    -0.87600
C1267       C  0.64875602  0.97076456  0.46364944     0.86300
O1268       O  0.65943914  0.90706835  0.33138036    -0.65800
O1269       O  0.60476933  0.53716662  0.41075356    -0.85100
C1270       C  0.68331364  0.92723652  0.35668475     0.87100
C1271       C  0.59505962  0.85896204  0.36981681     1.08700
H1272       H  0.66197334  0.00399013  0.40210210     0.40500
O1273       O  0.63519003  0.98732245  0.39918700    -1.07700
O1274       O  0.56120098  0.96812498  0.36209802    -0.64400
Ni1275     Ni  0.61428283  0.98063168  0.35442492     1.26300
O1276       O  0.67648833  0.94794851  0.37962497    -0.64600
O1277       O  0.62432859  0.53080461  0.35969373    -0.76900
C1278       C  0.62107376  0.96598194  0.28672411     0.86500
O1279       O  0.60040125  0.97410782  0.30700757    -0.64100
Ni1280     Ni  0.61108690  0.00314522  0.43400090     1.27400
Ni1281     Ni  0.62847243  0.93804752  0.39658250     1.26100
H1282       H  0.57585582  0.91749632  0.35539749     0.41100
O1283       O  0.56760929  0.65564255  0.29895165    -0.78900
O1284       O  0.50799781  0.63735608  0.43377275    -0.63600
O1285       O  0.52375961  0.65760259  0.34663603    -1.10200
C1286       C  0.64096117  0.74923362  0.40750013     1.08000
O1287       O  0.52159398  0.69544919  0.45454791    -0.76800
O1288       O  0.56631574  0.75638702  0.42448247    -0.64400
Ni1289     Ni  0.52288147  0.62037955  0.31080615     1.34900
C1290       C  0.55867754  0.75841512  0.39446997     0.86700
O1291       O  0.96783376  0.60572593  0.37354438    -0.77300
O1292       O  0.97866909  0.58242797  0.32296163    -0.87600
C1293       C  0.50467600  0.66128226  0.45575105     0.86300
O1294       O  0.55642380  0.60818433  0.33413559    -0.65800
O1295       O  0.62593773  0.74223646  0.43440234    -0.85100
C1296       C  0.55935451  0.60518444  0.36410977     0.87100
C1297       C  0.95928874  0.58045365  0.34767828     1.08700
H1298       H  0.58322245  0.67444713  0.40644332     0.40500
O1299       O  0.56538098  0.68447435  0.40293266    -1.07700
O1300       O  0.54929950  0.73161078  0.37003908    -0.64400
Ni1301     Ni  0.57264195  0.69902825  0.36094924     1.26300
O1302       O  0.54005563  0.61276646  0.38592423    -0.64600
O1303       O  0.62253682  0.73826914  0.37787423    -0.76900
C1304       C  0.56549234  0.68342618  0.29261436     0.86500
O1305       O  0.57521785  0.71083887  0.31657033    -0.64100
Ni1306     Ni  0.57373807  0.71913055  0.44293078     1.27400
Ni1307     Ni  0.51603303  0.64552040  0.38944972     1.26100
H1308       H  0.50513125  0.66574309  0.34011847     0.41100
C1309       C  0.56548574  0.79366541  0.38696685    -0.11300
C1310       C  0.57783665  0.82334623  0.37896735    -0.12800
C1311       C  0.58531221  0.59152482  0.37288618    -0.11300
C1312       C  0.60365263  0.57531372  0.37708260    -0.12800
C1313       C  0.91036957  0.51737492  0.35607991    -0.11300
C1314       C  0.92876360  0.54620274  0.34862538    -0.12800
C1315       C  0.71443491  0.78842955  0.40839639    -0.11300
C1316       C  0.68135061  0.77048659  0.41064626    -0.12800
C1317       C  0.71783684  0.92305825  0.36079940    -0.11300
C1318       C  0.74107841  0.91121485  0.36355752    -0.12800
C1319       C  0.96828267  0.92910219  0.38501348    -0.11300
C1320       C  0.00231936  0.94033913  0.38361215    -0.12800
C1321       C  0.64571973  0.50427063  0.23727490    -0.11300
C1322       C  0.63410537  0.98639145  0.25934419    -0.12800
C1323       C  0.67626726  0.99808721  0.49097103    -0.11300
C1324       C  0.69088434  0.52465088  0.01401630    -0.12800
C1325       C  0.85211268  0.86064204  0.01095126    -0.11300
C1326       C  0.84815686  0.87897621  0.49237410    -0.12800
C1327       C  0.85183965  0.84819765  0.26213390    -0.11300
C1328       C  0.86639269  0.84054621  0.23878010    -0.12800
C1329       C  0.77674130  0.71592464  0.14257206    -0.11300
C1330       C  0.76264024  0.68530881  0.14822393    -0.12800
C1331       C  0.51907651  0.90880254  0.10364924    -0.11300
C1332       C  0.55063032  0.92871666  0.09983538    -0.12800
C1333       C  0.01604116  0.66491232  0.23954004    -0.11300
C1334       C  0.54038225  0.67773875  0.26339617    -0.12800
C1335       C  0.48098491  0.64849180  0.48204626    -0.11300
C1336       C  0.96298031  0.63343900  0.00337711    -0.12800
C1337       C  0.90360891  0.74456117  0.09146829    -0.11300
C1338       C  0.91938981  0.72540772  0.09479939    -0.12800
C1339       C  0.92177423  0.99009760  0.13778908    -0.11300
C1340       C  0.91636562  0.96005020  0.14249584    -0.12800
C1341       C  0.80438597  0.58200487  0.14285572    -0.11300
C1342       C  0.83777324  0.59643973  0.13834393    -0.12800
C1343       C  0.55053968  0.58519628  0.11533871    -0.11300
C1344       C  0.57397851  0.57316734  0.11638108    -0.12800
O1345       O  0.96191492  0.59341065  0.53863937    -0.78900
O1346       O  0.98633526  0.62363751  0.68862840    -0.63600
O1347       O  0.93363773  0.58982745  0.60056336    -1.10200
C1348       C  0.93198636  0.70107510  0.60724319     1.08000
O1349       O  0.96940941  0.66888037  0.70634568    -0.76800
O1350       O  0.90007251  0.63395827  0.66371074    -0.64400
Ni1351     Ni  0.94256165  0.55776470  0.56729389     1.34900
C1352       C  0.87791247  0.61863296  0.63619088     0.86700
O1353       O  0.94752407  0.55467979  0.64816065    -0.77300
O1354       O  0.92423022  0.52160403  0.59502723    -0.87600
C1355       C  0.98861082  0.65110356  0.71008788     0.86300
O1356       O  0.49291402  0.56753661  0.58406344    -0.65800
O1357       O  0.92395283  0.69478787  0.63609513    -0.85100
C1358       C  0.51582622  0.58900494  0.60941787     0.87100
C1359       C  0.93133026  0.52413913  0.62661528     1.08700
H1360       H  0.99383137  0.66871680  0.63796776     0.40500
O1361       O  0.96712135  0.65327086  0.63823713    -1.07700
O1362       O  0.88965445  0.62376585  0.60740842    -0.64400
Ni1363     Ni  0.94149884  0.63696465  0.59390957     1.26300
O1364       O  0.50813852  0.61093024  0.63040352    -0.64600
O1365       O  0.94783312  0.68469398  0.58909055    -0.76900
C1366       C  0.94739295  0.61380820  0.53005177     0.86500
O1367       O  0.92338252  0.62021434  0.54714787    -0.64100
Ni1368     Ni  0.94618672  0.67821581  0.66891428     1.27400
Ni1369     Ni  0.95923932  0.60489297  0.64431556     1.26100
H1370       H  0.90712768  0.57595125  0.60282491     0.41100
O1371       O  0.83623960  0.81073450  0.53715070    -0.78900
O1372       O  0.87906737  0.81132264  0.69005940    -0.63600
O1373       O  0.84885088  0.82302205  0.60549449    -1.10200
C1374       C  0.98350928  0.89362001  0.61578176     1.08000
O1375       O  0.90740465  0.87218340  0.70477977    -0.76800
O1376       O  0.93741269  0.92266175  0.66565553    -0.64400
Ni1377     Ni  0.82304612  0.78063815  0.57073279     1.34900
C1378       C  0.91546222  0.92467237  0.64319851     0.86700
O1379       O  0.81256115  0.77970566  0.65099982    -0.77300
O1380       O  0.80296786  0.74593700  0.59997367    -0.87600
C1381       C  0.88649307  0.84088535  0.71077414     0.86300
O1382       O  0.86810807  0.77257820  0.57070987    -0.65800
O1383       O  0.98461870  0.89270376  0.64689111    -0.85100
C1384       C  0.88153120  0.76512317  0.59606682     0.87100
C1385       C  0.79709932  0.74912324  0.63057393     1.08700
H1386       H  0.92691986  0.83020932  0.63515763     0.40500
O1387       O  0.91307365  0.84467774  0.64036249    -1.07700
O1388       O  0.89487701  0.89766442  0.61988943    -0.64400
Ni1389     Ni  0.90068683  0.85457461  0.59990246     1.26300
O1390       O  0.87476652  0.77367509  0.62606301    -0.64600
O1391       O  0.95327532  0.88364013  0.59568570    -0.76900
C1392       C  0.85901425  0.84381386  0.53677744     0.86500
O1393       O  0.88660313  0.86395845  0.55912868    -0.64100
Ni1394     Ni  0.94574113  0.88235690  0.67548415     1.27400
Ni1395     Ni  0.86302841  0.81363465  0.64657704     1.26100
H1396       H  0.83384097  0.83663438  0.60916747     0.41100
O1397       O  0.69387291  0.54554412  0.70921636    -0.78900
O1398       O  0.72011273  0.56731068  0.56594648    -0.63600
O1399       O  0.68226165  0.57327646  0.65175836    -1.10200
C1400       C  0.58446225  0.96060809  0.60057849     1.08000
O1401       O  0.66349933  0.55639425  0.54697284    -0.76800
O1402       O  0.60675673  0.54891948  0.58203934    -0.64400
Ni1403     Ni  0.71512902  0.59187265  0.69248267     1.34900
C1404       C  0.59745546  0.55379618  0.61119669     0.86700
O1405       O  0.73965325  0.62375038  0.62283166    -0.77300
O1406       O  0.73559495  0.63862946  0.67840656    -0.87600
C1407       C  0.69357553  0.55341605  0.54168549     0.86300
O1408       O  0.75895035  0.58609693  0.67724474    -0.65800
O1409       O  0.58762979  0.97537626  0.57509463    -0.85100
C1410       C  0.76519808  0.57324271  0.64865909     0.87100
C1411       C  0.74528033  0.64712228  0.65009138     1.08700
H1412       H  0.67267503  0.50676635  0.59409951     0.40500
O1413       O  0.66222177  0.52433047  0.59875062    -1.07700
O1414       O  0.60666824  0.54131795  0.63499690    -0.64400
Ni1415     Ni  0.64509541  0.52349413  0.64168550     1.26300
O1416       O  0.73906498  0.55675982  0.62410417    -0.64600
O1417       O  0.60736781  0.97430197  0.62767850    -0.76900
C1418       C  0.65828538  0.52525672  0.71020494     0.86500
O1419       O  0.63331583  0.52205299  0.68717626    -0.64100
Ni1420     Ni  0.62631244  0.51629648  0.56151757     1.27400
Ni1421     Ni  0.70261081  0.57313290  0.60988823     1.26100
H1422       H  0.66926888  0.58873916  0.65227603     0.41100
O1423       O  0.87932297  0.92229293  0.96066658    -0.78900
O1424       O  0.86247533  0.88658036  0.81299240    -0.63000
O1425       O  0.84703158  0.92177257  0.89916577    -1.10200
C1426       C  0.74798981  0.81108233  0.89565261     1.08000
O1427       O  0.80413251  0.84108471  0.79532749    -0.76800
O1428       O  0.76961211  0.87569589  0.83777179    -0.64400
Ni1429     Ni  0.88702313  0.95628254  0.93123186     1.34900
C1430       C  0.76300489  0.89074600  0.86524194     0.86700
O1431       O  0.88545906  0.95446470  0.85023491    -0.77300
O1432       O  0.89517386  0.99018222  0.90193471    -0.87600
C1433       C  0.83861890  0.85963672  0.79156595     0.86300
O1434       O  0.92845000  0.94814251  0.91459261    -0.65800
O1435       O  0.74308660  0.81577455  0.86624751    -0.85100
C1436       C  0.93043399  0.92532128  0.89056376     0.87100
C1437       C  0.89571734  0.98547897  0.87009331     1.08700
H1438       H  0.83561554  0.84233610  0.86415839     0.40500
O1439       O  0.82218041  0.85731964  0.86349334    -1.07700
O1440       O  0.77296143  0.88634450  0.89395802    -0.64400
Ni1441     Ni  0.81499100  0.87519450  0.90739234     1.26300
O1442       O  0.90133939  0.90163098  0.87063969    -0.64600
O1443       O  0.77990445  0.82795462  0.91383315    -0.76900
C1444       C  0.84758679  0.90115824  0.96905158     0.86500
O1445       O  0.81615150  0.89470776  0.95293918    -0.64100
Ni1446     Ni  0.77647423  0.83181842  0.83303430     1.27400
Ni1447     Ni  0.85540510  0.90539366  0.85621278     1.26100
H1448       H  0.83194273  0.93474158  0.89619446     0.41100
O1449       O  0.63235517  0.94168733  0.79116598    -0.78900
O1450       O  0.65753967  0.95169725  0.94066501    -0.63600
O1451       O  0.60260001  0.93051038  0.85343506    -1.10200
C1452       C  0.61309977  0.54720786  0.88311016     1.08000
O1453       O  0.61655514  0.97055929  0.95930736    -0.76800
O1454       O  0.56088411  0.96640542  0.91659909    -0.64400
Ni1455     Ni  0.61007907  0.90162779  0.81600561     1.34900
C1456       C  0.54363160  0.95886196  0.88735954     0.86700
O1457       O  0.61641724  0.88665636  0.89287015    -0.77300
O1458       O  0.58808006  0.86105983  0.83929562    -0.87600
C1459       C  0.64875610  0.97076455  0.96364942     0.86300
O1460       O  0.65943916  0.90706842  0.83138034    -0.65800
O1461       O  0.60476926  0.53716656  0.91075357    -0.85100
C1462       C  0.68331365  0.92723656  0.85668473     0.87100
C1463       C  0.59505960  0.85896203  0.86981691     1.08700
H1464       H  0.66197335  0.00399022  0.90210207     0.40500
O1465       O  0.63519005  0.98732249  0.89918696    -1.07700
O1466       O  0.56120099  0.96812490  0.86209800    -0.64400
Ni1467     Ni  0.61428282  0.98063167  0.85442490     1.26300
O1468       O  0.67648834  0.94794854  0.87962496    -0.64600
O1469       O  0.62432854  0.53080454  0.85969375    -0.76900
C1470       C  0.62107375  0.96598189  0.78672411     0.86500
O1471       O  0.60040118  0.97410775  0.80700752    -0.64100
Ni1472     Ni  0.61108692  0.00314520  0.93400090     1.27400
Ni1473     Ni  0.62847247  0.93804756  0.89658251     1.26100
H1474       H  0.57585580  0.91749626  0.85539759     0.41100
O1475       O  0.56760933  0.65564264  0.79895173    -0.78900
O1476       O  0.50799775  0.63735609  0.93377273    -0.63600
O1477       O  0.52375966  0.65760257  0.84663601    -1.10200
C1478       C  0.64096121  0.74923361  0.90750017     1.08000
O1479       O  0.52159408  0.69544921  0.95454801    -0.76800
O1480       O  0.56631573  0.75638699  0.92448253    -0.64400
Ni1481     Ni  0.52288151  0.62037954  0.81080616     1.34900
C1482       C  0.55867749  0.75841506  0.89447003     0.86700
O1483       O  0.96783379  0.60572590  0.87354440    -0.77300
O1484       O  0.97866902  0.58242800  0.82296154    -0.87600
C1485       C  0.50467600  0.66128225  0.95575108     0.86300
O1486       O  0.55642373  0.60818422  0.83413564    -0.65800
O1487       O  0.62593779  0.74223658  0.93440241    -0.85100
C1488       C  0.55935452  0.60518440  0.86410985     0.87100
C1489       C  0.95928873  0.58045365  0.84767825     1.08700
H1490       H  0.58322254  0.67444711  0.90644336     0.40500
O1491       O  0.56538103  0.68447439  0.90293267    -1.07700
O1492       O  0.54929945  0.73161071  0.87003914    -0.64400
Ni1493     Ni  0.57264201  0.69902828  0.86094923     1.26300
O1494       O  0.54005569  0.61276648  0.88592433    -0.64600
O1495       O  0.62253689  0.73826909  0.87787425    -0.76900
C1496       C  0.56549235  0.68342624  0.79261437     0.86500
O1497       O  0.57521788  0.71083898  0.81657030    -0.64100
Ni1498     Ni  0.57373816  0.71913058  0.94293085     1.27400
Ni1499     Ni  0.51603307  0.64552039  0.88944973     1.26100
H1500       H  0.50513162  0.66574289  0.84011845     0.41100
C1501       C  0.56548568  0.79366535  0.88696691    -0.11300
C1502       C  0.57783660  0.82334618  0.87896742    -0.12800
C1503       C  0.58531227  0.59152486  0.87288626    -0.11300
C1504       C  0.60365261  0.57531368  0.87708266    -0.12800
C1505       C  0.91036957  0.51737501  0.85607994    -0.11300
C1506       C  0.92876359  0.54620275  0.84862529    -0.12800
C1507       C  0.71443487  0.78842943  0.90839637    -0.11300
C1508       C  0.68135061  0.77048651  0.91064630    -0.12800
C1509       C  0.71783686  0.92305827  0.86079936    -0.11300
C1510       C  0.74107842  0.91121485  0.86355752    -0.12800
C1511       C  0.96828267  0.92910224  0.88501355    -0.11300
C1512       C  0.00231935  0.94033915  0.88361218    -0.12800
C1513       C  0.64571969  0.50427060  0.73727480    -0.11300
C1514       C  0.63410537  0.98639133  0.75934413    -0.12800
C1515       C  0.67626735  0.99808727  0.99097097    -0.11300
C1516       C  0.69088436  0.52465086  0.51401636    -0.12800
C1517       C  0.85211266  0.86064201  0.51095128    -0.11300
C1518       C  0.84815683  0.87897620  0.99237407    -0.12800
C1519       C  0.85183964  0.84819757  0.76213392    -0.11300
C1520       C  0.86639262  0.84054617  0.73878007    -0.12800
C1521       C  0.77674130  0.71592469  0.64257209    -0.11300
C1522       C  0.76264022  0.68530884  0.64822394    -0.12800
C1523       C  0.51907657  0.90880255  0.60364929    -0.11300
C1524       C  0.55063037  0.92871672  0.59983544    -0.12800
C1525       C  0.01604118  0.66491236  0.73954002    -0.11300
C1526       C  0.54038224  0.67773876  0.76339617    -0.12800
C1527       C  0.48098491  0.64849176  0.98204630    -0.11300
C1528       C  0.96298033  0.63343899  0.50337704    -0.12800
C1529       C  0.90360889  0.74456117  0.59146833    -0.11300
C1530       C  0.91938986  0.72540779  0.59479942    -0.12800
C1531       C  0.92177424  0.99009760  0.63778912    -0.11300
C1532       C  0.91636570  0.96005020  0.64249582    -0.12800
C1533       C  0.80438598  0.58200479  0.64285576    -0.11300
C1534       C  0.83777327  0.59643967  0.63834402    -0.12800
C1535       C  0.55053961  0.58519618  0.61533875    -0.11300
C1536       C  0.57397847  0.57316729  0.61638113    -0.12800
loop_ 
_geom_bond_atom_site_label_1 
_geom_bond_atom_site_label_2 
_geom_bond_distance 
_geom_bond_site_symmetry_2 
_ccdc_geom_bond_type 
O1           Ni7   1.946       .  S
O1           C22   1.279       .  A
O2          Ni25   1.917       .  S
O2           C11   1.275       .  A
O3           Ni7   1.877       .  S
O3          Ni25   1.880       .  S
O3          Ni19   1.898       .  S
O3           H26   0.965       .  S
C4           O21   1.267       .  A
C4           O13   1.269       .  A
C4          C186   1.439       .  S
O5          Ni24   1.920       .  S
O5           C11   1.271       .  A
O6          Ni24   1.915       .  S
O6            C8   1.278       .  A
Ni7          O10   1.930       .  S
Ni7         O780   1.907       .  S
C8           O18   1.293       .  A
C8          C190   1.458       .  S
O9          Ni25   1.952       .  S
O9           C15   1.290       .  A
O10          C15   1.284       .  A
C11         C181   1.439       .  S
O12        Ni775   1.907       .  S
O12          C14   1.266   1_655  A
O13         Ni24   1.931       .  S
C14          O20   1.275       .  A
C14         C191   1.446       .  S
C15         C571   1.446   1_545  S
H16          O17   0.967       .  S
O17         Ni25   1.941       .  S
O17         Ni19   1.899       .  S
O17         Ni24   1.909       .  S
O18         Ni19   1.988       .  S
Ni19         O23   1.912       .  S
Ni19         O21   1.917       .  S
O20        Ni793   1.939   1_455  S
C22          O23   1.278       .  A
C22         C184   1.460       .  S
Ni25        O788   1.939       .  S
O27         Ni33   1.937       .  S
O27          C48   1.275       .  A
O28         Ni51   1.889       .  S
O28          C37   1.270       .  A
O29         Ni33   1.907       .  S
O29         Ni51   1.894       .  S
O29         Ni45   1.935       .  S
O29          H52   0.968       .  S
C30          O47   1.280       .  A
C30          O39   1.275       .  A
C30         C947   1.409       .  S
O31         Ni50   1.901       .  S
O31          C37   1.270       .  A
O32         Ni50   1.919       .  S
O32          C34   1.268       .  A
Ni33         O36   1.940       .  S
Ni33         O38   1.925       .  S
C34          O44   1.271       .  A
C34         C188   1.446       .  S
O35         Ni51   1.910       .  S
O35          C41   1.268       .  A
O36          C41   1.272       .  A
C37         C176   1.408       .  S
O38          C40   1.280       .  A
O39         Ni50   1.897       .  S
C40          O46   1.283       .  A
C40         C185   1.439       .  S
C41         C177   1.438       .  S
H42          O43   0.965       .  S
O43         Ni51   1.883       .  S
O43         Ni45   1.858       .  S
O43         Ni50   1.877       .  S
O44         Ni45   1.930       .  S
Ni45         O49   1.882       .  S
Ni45         O47   1.922       .  S
O46         Ni51   1.954       .  S
C48          O49   1.263       .  A
C48         C173   1.429       .  S
O53         Ni59   1.981       .  S
O53          C74   1.290       .  A
O54         Ni77   1.954       .  S
O54          C63   1.269       .  A
O55         Ni59   1.890       .  S
O55         Ni77   1.910       .  S
O55         Ni71   1.903       .  S
O55          H78   0.966       .  S
C56          O73   1.276       .  A
C56          O65   1.273       .  A
C56         C180   1.408       .  S
O57         Ni76   1.883       .  S
O57          C63   1.255       .  A
O58         Ni76   1.904       .  S
O58          C60   1.265       .  A
Ni59         O62   1.941       .  S
Ni59         O64   1.936       .  S
C60          O70   1.277       .  A
C60         C192   1.448       .  S
O61         Ni77   1.931       .  S
O61          C67   1.285       .  A
O62          C67   1.286       .  A
C63         C172   1.456       .  S
O64          C66   1.273       .  A
O65        Ni460   1.908       .  S
C66          O72   1.270       .  A
C66         C189   1.455       .  S
C67         C178   1.440       .  S
H68          O69   0.967       .  S
O69         Ni77   1.919       .  S
O69         Ni71   1.897       .  S
O69         Ni76   1.913       .  S
O70         Ni71   1.958       .  S
Ni71         O75   1.932       .  S
Ni71        O457   1.901   1_545  S
O72         Ni77   1.923       .  S
O73        Ni455   1.901       .  S
C74          O75   1.277       .  A
C74         C169   1.485       .  S
Ni76        O449   1.908   1_545  S
O79         Ni85   1.928       .  S
O79         C100   1.276       .  A
O80        Ni103   1.881       .  S
O80          C89   1.264       .  A
O81         Ni85   1.873       .  S
O81        Ni103   1.860       .  S
O81         Ni97   1.888       .  S
O81         H104   0.964       .  S
C82          O99   1.269       .  A
C82          O91   1.266       .  A
C82         C163   1.426       .  S
O83        Ni102   1.910       .  S
O83          C89   1.267       .  A
O84        Ni102   1.914       .  S
O84          C86   1.276       .  A
Ni85         O88   1.919       .  S
Ni85         O90   1.912       .  S
C86          O96   1.285       .  A
C86         C166   1.440       .  S
O87        Ni103   1.921       .  S
O87          C93   1.280       .  A
O88          C93   1.282       .  A
C89         C175   1.411       .  S
O90          C92   1.267       .  A
O91        Ni102   1.916       .  S
C92          O98   1.276       .  A
C92         C167   1.451       .  S
C93         C545   1.419       .  S
H94          O95   0.967       .  S
O95        Ni103   1.932       .  S
O95         Ni97   1.895       .  S
O95        Ni102   1.908       .  S
O96         Ni97   1.965       .  S
Ni97        O101   1.886       .  S
Ni97         O99   1.914       .  S
O98        Ni103   1.944       .  S
C100        O101   1.271       .  A
C100        C174   1.429       .  S
O105       Ni111   1.977       .  S
O105        C126   1.286       .  A
O106       Ni129   1.950       .  S
O106        C115   1.271       .  A
O107       Ni111   1.883       .  S
O107       Ni129   1.905       .  S
O107       Ni123   1.906       .  S
O107        H130   0.965       .  S
C108        O125   1.275       .  A
C108        O117   1.271       .  A
C108        C160   1.408       .  S
O109       Ni128   1.896       .  S
O109        C115   1.260       .  A
O110       Ni128   1.913       .  S
O110        C112   1.269       .  A
Ni111       O114   1.950       .  S
Ni111       O116   1.913       .  S
C112        O122   1.280       .  A
C112        C936   1.452       .  S
O113       Ni129   1.938       .  S
O113        C119   1.286       .  A
O114        C119   1.288       .  A
C115        C171   1.458       .  S
O116        C118   1.268       .  A
O117       Ni512   1.907       .  S
C118        O124   1.271       .  A
C118        C165   1.437       .  S
C119        C158   1.451       .  S
H120        O121   0.967       .  S
O121       Ni129   1.914       .  S
O121       Ni123   1.898       .  S
O121       Ni128   1.906       .  S
O122       Ni123   1.965       .  S
Ni123       O127   1.930       .  S
Ni123       O509   1.902       .  S
O124       Ni129   1.925       .  S
O125       Ni507   1.902   1_545  S
C126        O127   1.278       .  A
C126        C170   1.485       .  S
Ni128       O501   1.907       .  S
O131       Ni137   1.882       .  S
O131        C152   1.248       .  A
O132       Ni155   1.906       .  S
O132        C141   1.268       .  A
O133       Ni137   1.918       .  S
O133       Ni155   1.894       .  S
O133       Ni149   1.928       .  S
O133        H156   0.967       .  S
C134        O151   1.287       .  A
C134        O143   1.281       .  A
C134        C164   1.431       .  S
O135       Ni154   1.967       .  S
O135        C141   1.285       .  A
O136       Ni154   1.935       .  S
O136        C138   1.273       .  A
Ni137       O142   1.870       .  S
Ni137       O908   1.925   1_455  S
C138        O148   1.266       .  A
C138        C157   1.447       .  S
O139       Ni923   1.894       .  S
O139        C145   1.271       .  A
O140       Ni905   1.925       .  S
O140        C145   1.276       .  A
C141        C183   1.461   1_455  S
O142        C144   1.254       .  A
O143       Ni154   1.925       .  S
C144        O150   1.270       .  A
C144        C159   1.412       .  S
C145        C162   1.416       .  S
H146        O147   0.966       .  S
O147       Ni155   1.896       .  S
O147       Ni149   1.898       .  S
O147       Ni154   1.893       .  S
O148       Ni149   1.913       .  S
Ni149       O153   1.946       .  S
Ni149       O151   1.934       .  S
O150       Ni155   1.932       .  S
C152        O153   1.268       .  A
C152        C182   1.435       .  S
Ni155       O907   1.894   1_455  S
C157        C158   1.215       .  T
C159        C160   1.192       .  T
C161        C477   1.419   1_545  S
C161        C162   1.196       .  T
C163        C164   1.203       .  T
C165        C166   1.208       .  T
C167        C168   1.216       .  T
C168        C880   1.452       .  S
C169        C554   1.235   1_545  T
C170        C553   1.235       .  T
C171        C748   1.220       .  T
C172        C747   1.220   1_544  T
C173        C366   1.203   1_554  T
C174        C365   1.203       .  T
C175        C176   1.192       .  T
C177        C178   1.209       .  T
C179        C798   1.409   1_455  S
C179        C180   1.190       .  T
C181        C950   1.209       .  T
C182        C949   1.209       .  T
C183       C1144   1.221       .  T
C184       C1143   1.221   1_554  T
C185        C186   1.208       .  T
C187        C399   1.446       .  S
C187        C188   1.212       .  T
C189        C190   1.219       .  T
C191        C192   1.214       .  T
O193       Ni199   1.946       .  S
O193        C214   1.279       .  A
O194       Ni217   1.917       .  S
O194        C203   1.275       .  A
O195       Ni199   1.877       .  S
O195       Ni217   1.880       .  S
O195       Ni211   1.898       .  S
O195        H218   0.965       .  S
C196        O213   1.267       .  A
C196        O205   1.269       .  A
C196        C378   1.439       .  S
O197       Ni216   1.920       .  S
O197        C203   1.271       .  A
O198       Ni216   1.915       .  S
O198        C200   1.278       .  A
Ni199       O202   1.930       .  S
Ni199       O972   1.907       .  S
C200        O210   1.293       .  A
C200        C382   1.458       .  S
O201       Ni217   1.952       .  S
O201        C207   1.290       .  A
O202        C207   1.284       .  A
C203        C373   1.439       .  S
O204       Ni967   1.907       .  S
O204        C206   1.266   1_655  A
O205       Ni216   1.931       .  S
C206        O212   1.275       .  A
C206        C383   1.446       .  S
C207        C763   1.446   1_545  S
H208        O209   0.966       .  S
O209       Ni217   1.941       .  S
O209       Ni211   1.899       .  S
O209       Ni216   1.909       .  S
O210       Ni211   1.988       .  S
Ni211       O215   1.912       .  S
Ni211       O213   1.917       .  S
O212       Ni985   1.939   1_455  S
C214        O215   1.278       .  A
C214        C376   1.460       .  S
Ni217       O980   1.939       .  S
O219       Ni225   1.937       .  S
O219        C240   1.275       .  A
O220       Ni243   1.889       .  S
O220        C229   1.270       .  A
O221       Ni225   1.907       .  S
O221       Ni243   1.894       .  S
O221       Ni237   1.935       .  S
O221        H244   0.968       .  S
C222        O239   1.280       .  A
C222        O231   1.275       .  A
C222       C1139   1.409       .  S
O223       Ni242   1.901       .  S
O223        C229   1.270       .  A
O224       Ni242   1.919       .  S
O224        C226   1.268       .  A
Ni225       O228   1.940       .  S
Ni225       O230   1.925       .  S
C226        O236   1.271       .  A
C226        C380   1.446       .  S
O227       Ni243   1.910       .  S
O227        C233   1.268       .  A
O228        C233   1.272       .  A
C229        C368   1.408       .  S
O230        C232   1.280       .  A
O231       Ni242   1.897       .  S
C232        O238   1.283       .  A
C232        C377   1.439       .  S
C233        C369   1.438       .  S
H234        O235   0.965       .  S
O235       Ni243   1.883       .  S
O235       Ni237   1.858       .  S
O235       Ni242   1.877       .  S
O236       Ni237   1.930       .  S
Ni237       O241   1.882       .  S
Ni237       O239   1.922       .  S
O238       Ni243   1.954       .  S
C240        O241   1.263       .  A
C240        C365   1.429       .  S
O245       Ni251   1.981       .  S
O245        C266   1.290       .  A
O246       Ni269   1.954       .  S
O246        C255   1.269       .  A
O247       Ni251   1.890       .  S
O247       Ni269   1.910       .  S
O247       Ni263   1.903       .  S
O247        H270   0.966       .  S
C248        O265   1.276       .  A
C248        O257   1.273       .  A
C248        C372   1.408       .  S
O249       Ni268   1.883       .  S
O249        C255   1.255       .  A
O250       Ni268   1.904       .  S
O250        C252   1.265       .  A
Ni251       O254   1.941       .  S
Ni251       O256   1.936       .  S
C252        O262   1.277       .  A
C252        C384   1.448       .  S
O253       Ni269   1.931       .  S
O253        C259   1.285       .  A
O254        C259   1.286       .  A
C255        C364   1.456       .  S
O256        C258   1.273       .  A
O257       Ni652   1.908       .  S
C258        O264   1.270       .  A
C258        C381   1.455       .  S
C259        C370   1.440       .  S
H260        O261   0.967       .  S
O261       Ni269   1.919       .  S
O261       Ni263   1.897       .  S
O261       Ni268   1.913       .  S
O262       Ni263   1.958       .  S
Ni263       O267   1.932       .  S
Ni263       O649   1.901   1_545  S
O264       Ni269   1.923       .  S
O265       Ni647   1.901       .  S
C266        O267   1.277       .  A
C266        C361   1.485       .  S
Ni268       O641   1.908   1_545  S
O271       Ni277   1.928       .  S
O271        C292   1.276       .  A
O272       Ni295   1.881       .  S
O272        C281   1.264       .  A
O273       Ni277   1.873       .  S
O273       Ni295   1.860       .  S
O273       Ni289   1.888       .  S
O273        H296   0.964       .  S
C274        O291   1.269       .  A
C274        O283   1.266       .  A
C274        C355   1.426       .  S
O275       Ni294   1.910       .  S
O275        C281   1.267       .  A
O276       Ni294   1.914       .  S
O276        C278   1.276       .  A
Ni277       O280   1.919       .  S
Ni277       O282   1.912       .  S
C278        O288   1.285       .  A
C278        C358   1.440       .  S
O279       Ni295   1.921       .  S
O279        C285   1.280       .  A
O280        C285   1.282       .  A
C281        C367   1.411       .  S
O282        C284   1.267       .  A
O283       Ni294   1.916       .  S
C284        O290   1.276       .  A
C284        C359   1.451       .  S
C285        C737   1.419       .  S
H286        O287   0.967       .  S
O287       Ni295   1.932       .  S
O287       Ni289   1.895       .  S
O287       Ni294   1.908       .  S
O288       Ni289   1.965       .  S
Ni289       O293   1.886       .  S
Ni289       O291   1.914       .  S
O290       Ni295   1.944       .  S
C292        O293   1.271       .  A
C292        C366   1.429       .  S
O297       Ni303   1.977       .  S
O297        C318   1.286       .  A
O298       Ni321   1.950       .  S
O298        C307   1.271       .  A
O299       Ni303   1.883       .  S
O299       Ni321   1.905       .  S
O299       Ni315   1.906       .  S
O299        H322   0.965       .  S
C300        O317   1.275       .  A
C300        O309   1.271       .  A
C300        C352   1.408       .  S
O301       Ni320   1.896       .  S
O301        C307   1.260       .  A
O302       Ni320   1.913       .  S
O302        C304   1.269       .  A
Ni303       O306   1.950       .  S
Ni303       O308   1.913       .  S
C304        O314   1.280       .  A
C304       C1128   1.452       .  S
O305       Ni321   1.938       .  S
O305        C311   1.286       .  A
O306        C311   1.288       .  A
C307        C363   1.458       .  S
O308        C310   1.268       .  A
O309       Ni704   1.907       .  S
C310        O316   1.271       .  A
C310        C357   1.437       .  S
C311        C350   1.451       .  S
H312        O313   0.967       .  S
O313       Ni321   1.914       .  S
O313       Ni315   1.898       .  S
O313       Ni320   1.906       .  S
O314       Ni315   1.965       .  S
Ni315       O319   1.930       .  S
Ni315       O701   1.902       .  S
O316       Ni321   1.925       .  S
O317       Ni699   1.902   1_545  S
C318        O319   1.278       .  A
C318        C362   1.485       .  S
Ni320       O693   1.907       .  S
O323       Ni329   1.882       .  S
O323        C344   1.248       .  A
O324       Ni347   1.906       .  S
O324        C333   1.268       .  A
O325       Ni329   1.918       .  S
O325       Ni347   1.894       .  S
O325       Ni341   1.928       .  S
O325        H348   0.967       .  S
C326        O343   1.287       .  A
C326        O335   1.281       .  A
C326        C356   1.431       .  S
O327       Ni346   1.967       .  S
O327        C333   1.285       .  A
O328       Ni346   1.935       .  S
O328        C330   1.273       .  A
Ni329      O1100   1.925   1_455  S
Ni329       O334   1.870       .  S
C330        O340   1.266       .  A
C330        C349   1.447       .  S
O331      Ni1115   1.894       .  S
O331        C337   1.271       .  A
O332      Ni1097   1.925       .  S
O332        C337   1.276       .  A
C333        C375   1.461   1_455  S
O334        C336   1.254       .  A
O335       Ni346   1.925       .  S
C336        O342   1.270       .  A
C336        C351   1.412       .  S
C337        C354   1.416       .  S
H338        O339   0.966       .  S
O339       Ni347   1.896       .  S
O339       Ni341   1.898       .  S
O339       Ni346   1.893       .  S
O340       Ni341   1.913       .  S
Ni341       O345   1.946       .  S
Ni341       O343   1.934       .  S
O342       Ni347   1.932       .  S
C344        O345   1.268       .  A
C344        C374   1.435       .  S
Ni347      O1099   1.894   1_455  S
C349        C350   1.215       .  T
C351        C352   1.192       .  T
C353        C669   1.419   1_545  S
C353        C354   1.196       .  T
C355        C356   1.203       .  T
C357        C358   1.208       .  T
C359        C360   1.216       .  T
C360       C1072   1.452       .  S
C361        C746   1.235   1_545  T
C362        C745   1.235       .  T
C363        C556   1.220   1_556  T
C364        C555   1.220   1_545  T
C367        C368   1.192       .  T
C369        C370   1.209       .  T
C371        C990   1.409   1_455  S
C371        C372   1.190       .  T
C373       C1142   1.209       .  T
C374       C1141   1.209       .  T
C375        C952   1.221   1_556  T
C376        C951   1.221       .  T
C377        C378   1.208       .  T
C379        C591   1.446       .  S
C379        C380   1.212       .  T
C381        C382   1.219       .  T
C383        C384   1.214       .  T
O385       Ni391   1.946       .  S
O385        C406   1.279       .  A
O386       Ni409   1.917       .  S
O386        C395   1.275       .  A
O387       Ni391   1.877       .  S
O387       Ni409   1.880       .  S
O387       Ni403   1.898       .  S
O387        H410   0.965       .  S
C388        O405   1.267       .  A
C388        O397   1.269       .  A
C388        C570   1.439       .  S
O389       Ni408   1.920       .  S
O389        C395   1.271       .  A
O390       Ni408   1.915       .  S
O390        C392   1.278       .  A
Ni391       O394   1.930       .  S
Ni391      O1164   1.907       .  S
C392        O402   1.293       .  A
C392        C574   1.458       .  S
O393       Ni409   1.952       .  S
O393        C399   1.290       .  A
O394        C399   1.284       .  A
C395        C565   1.439       .  S
O396      Ni1159   1.907       .  S
O396        C398   1.266   1_655  A
O397       Ni408   1.931       .  S
C398        O404   1.275       .  A
C398        C575   1.446       .  S
H400        O401   0.966       .  S
O401       Ni409   1.941       .  S
O401       Ni403   1.899       .  S
O401       Ni408   1.909       .  S
O402       Ni403   1.988       .  S
Ni403       O407   1.911       .  S
Ni403       O405   1.917       .  S
O404      Ni1177   1.939   1_455  S
C406        O407   1.278       .  A
C406        C568   1.460       .  S
Ni409      O1172   1.939       .  S
O411       Ni417   1.937       .  S
O411        C432   1.275       .  A
O412       Ni435   1.889       .  S
O412        C421   1.270       .  A
O413       Ni417   1.907       .  S
O413       Ni435   1.894       .  S
O413       Ni429   1.935       .  S
O413        H436   0.968       .  S
C414        O431   1.280       .  A
C414        O423   1.275       .  A
C414       C1331   1.409       .  S
O415       Ni434   1.901       .  S
O415        C421   1.270       .  A
O416       Ni434   1.919       .  S
O416        C418   1.268       .  A
Ni417       O420   1.940       .  S
Ni417       O422   1.925       .  S
C418        O428   1.271       .  A
C418        C572   1.446       .  S
O419       Ni435   1.910       .  S
O419        C425   1.268       .  A
O420        C425   1.272       .  A
C421        C560   1.408       .  S
O422        C424   1.280       .  A
O423       Ni434   1.897       .  S
C424        O430   1.283       .  A
C424        C569   1.439       .  S
C425        C561   1.438       .  S
H426        O427   0.965       .  S
O427       Ni435   1.883       .  S
O427       Ni429   1.858       .  S
O427       Ni434   1.877       .  S
O428       Ni429   1.930       .  S
Ni429       O433   1.882       .  S
Ni429       O431   1.922       .  S
O430       Ni435   1.954       .  S
C432        O433   1.263       .  A
C432        C557   1.429       .  S
O437       Ni443   1.981       .  S
O437        C458   1.290       .  A
O438       Ni461   1.954       .  S
O438        C447   1.269       .  A
O439       Ni443   1.890       .  S
O439       Ni461   1.910       .  S
O439       Ni455   1.903       .  S
O439        H462   0.966       .  S
C440        O457   1.276       .  A
C440        O449   1.273       .  A
C440        C564   1.408       .  S
O441       Ni460   1.883       .  S
O441        C447   1.255       .  A
O442       Ni460   1.904       .  S
O442        C444   1.265       .  A
Ni443       O446   1.941       .  S
Ni443       O448   1.936       .  S
C444        O454   1.277       .  A
C444        C576   1.448       .  S
O445       Ni461   1.931       .  S
O445        C451   1.285       .  A
O446        C451   1.286       .  A
C447        C556   1.456       .  S
O448        C450   1.273       .  A
C450        O456   1.270       .  A
C450        C573   1.455       .  S
C451        C562   1.440       .  S
H452        O453   0.967       .  S
O453       Ni461   1.919       .  S
O453       Ni455   1.897       .  S
O453       Ni460   1.913       .  S
O454       Ni455   1.958       .  S
Ni455       O459   1.932       .  S
O456       Ni461   1.923       .  S
C458        O459   1.277       .  A
C458        C553   1.485       .  S
O463       Ni469   1.928       .  S
O463        C484   1.276       .  A
O464       Ni487   1.881       .  S
O464        C473   1.264       .  A
O465       Ni469   1.873       .  S
O465       Ni487   1.860       .  S
O465       Ni481   1.888       .  S
O465        H488   0.964       .  S
C466        O483   1.269       .  A
C466        O475   1.266       .  A
C466        C547   1.426       .  S
O467       Ni486   1.910       .  S
O467        C473   1.267       .  A
O468       Ni486   1.914       .  S
O468        C470   1.276       .  A
Ni469       O472   1.919       .  S
Ni469       O474   1.912       .  S
C470        O480   1.285       .  A
C470        C550   1.440       .  S
O471       Ni487   1.921       .  S
O471        C477   1.280       .  A
O472        C477   1.282       .  A
C473        C559   1.411       .  S
O474        C476   1.267       .  A
O475       Ni486   1.916       .  S
C476        O482   1.276       .  A
C476        C551   1.451       .  S
H478        O479   0.967       .  S
O479       Ni487   1.932       .  S
O479       Ni481   1.895       .  S
O479       Ni486   1.908       .  S
O480       Ni481   1.965       .  S
Ni481       O485   1.886       .  S
Ni481       O483   1.914       .  S
O482       Ni487   1.944       .  S
C484        O485   1.271       .  A
C484        C558   1.429       .  S
O489       Ni495   1.977       .  S
O489        C510   1.286       .  A
O490       Ni513   1.950       .  S
O490        C499   1.271       .  A
O491       Ni495   1.883       .  S
O491       Ni513   1.905       .  S
O491       Ni507   1.906       .  S
O491        H514   0.965       .  S
C492        O509   1.275       .  A
C492        O501   1.271       .  A
C492        C544   1.408       .  S
O493       Ni512   1.896   1_565  S
O493        C499   1.260       .  A
O494       Ni512   1.913   1_565  S
O494        C496   1.269       .  A
Ni495       O498   1.950       .  S
Ni495       O500   1.913       .  S
C496        O506   1.280       .  A
C496       C1320   1.452       .  S
O497       Ni513   1.938       .  S
O497        C503   1.286       .  A
O498        C503   1.288       .  A
C499        C555   1.458       .  S
O500        C502   1.268       .  A
C502        O508   1.271       .  A
C502        C549   1.437       .  S
C503        C542   1.451       .  S
H504        O505   0.967   1_545  S
O505       Ni513   1.914       .  S
O505       Ni507   1.898       .  S
O505       Ni512   1.906   1_565  S
O506       Ni507   1.965       .  S
Ni507       O511   1.930       .  S
O508       Ni513   1.925       .  S
C510        O511   1.278       .  A
C510        C554   1.485       .  S
O515       Ni521   1.882       .  S
O515        C536   1.248       .  A
O516       Ni539   1.906       .  S
O516        C525   1.268       .  A
O517       Ni521   1.918       .  S
O517       Ni539   1.894       .  S
O517       Ni533   1.928       .  S
O517        H540   0.967       .  S
C518        O535   1.287       .  A
C518        O527   1.281       .  A
C518        C548   1.431       .  S
O519       Ni538   1.967       .  S
O519        C525   1.285       .  A
O520       Ni538   1.935       .  S
O520        C522   1.273       .  A
Ni521      O1292   1.925   1_455  S
Ni521       O526   1.870       .  S
C522        O532   1.266       .  A
C522        C541   1.447       .  S
O523      Ni1307   1.894       .  S
O523        C529   1.271       .  A
O524      Ni1289   1.925       .  S
O524        C529   1.276       .  A
C525        C567   1.461   1_455  S
O526        C528   1.254       .  A
O527       Ni538   1.925       .  S
C528        O534   1.270       .  A
C528        C543   1.412       .  S
C529        C546   1.416       .  S
H530        O531   0.966       .  S
O531       Ni539   1.896       .  S
O531       Ni533   1.898       .  S
O531       Ni538   1.893       .  S
O532       Ni533   1.913       .  S
Ni533       O537   1.946       .  S
Ni533       O535   1.934       .  S
O534       Ni539   1.932       .  S
C536        O537   1.268       .  A
C536        C566   1.435       .  S
Ni539      O1291   1.894   1_455  S
C541        C542   1.215       .  T
C543        C544   1.192       .  T
C545        C546   1.196       .  T
C547        C548   1.203       .  T
C549        C550   1.208       .  T
C551        C552   1.216       .  T
C552       C1264   1.452       .  S
C557        C750   1.203   1_554  T
C558        C749   1.203       .  T
C559        C560   1.192       .  T
C561        C562   1.209       .  T
C563       C1182   1.409   1_455  S
C563        C564   1.190       .  T
C565       C1334   1.209       .  T
C566       C1333   1.209       .  T
C567       C1528   1.221       .  T
C568       C1527   1.221   1_554  T
C569        C570   1.208       .  T
C571        C572   1.212       .  T
C573        C574   1.219       .  T
C575        C576   1.214       .  T
O577       Ni583   1.946       .  S
O577        C598   1.279       .  A
O578       Ni601   1.917       .  S
O578        C587   1.275       .  A
O579       Ni583   1.877       .  S
O579       Ni601   1.880       .  S
O579       Ni595   1.898       .  S
O579        H602   0.965       .  S
C580        O597   1.267       .  A
C580        O589   1.269       .  A
C580        C762   1.439       .  S
O581       Ni600   1.920       .  S
O581        C587   1.271       .  A
O582       Ni600   1.915       .  S
O582        C584   1.278       .  A
Ni583       O586   1.930       .  S
Ni583      O1356   1.907       .  S
C584        O594   1.293       .  A
C584        C766   1.458       .  S
O585       Ni601   1.952       .  S
O585        C591   1.290       .  A
O586        C591   1.284       .  A
C587        C757   1.439       .  S
O588      Ni1351   1.907       .  S
O588        C590   1.266   1_655  A
O589       Ni600   1.931       .  S
C590        O596   1.275       .  A
C590        C767   1.446       .  S
H592        O593   0.967       .  S
O593       Ni601   1.941       .  S
O593       Ni595   1.899       .  S
O593       Ni600   1.909       .  S
O594       Ni595   1.988       .  S
Ni595       O599   1.912       .  S
Ni595       O597   1.917       .  S
O596      Ni1369   1.939   1_455  S
C598        O599   1.278       .  A
C598        C760   1.460       .  S
Ni601      O1364   1.939       .  S
O603       Ni609   1.937       .  S
O603        C624   1.275       .  A
O604       Ni627   1.889       .  S
O604        C613   1.270       .  A
O605       Ni609   1.907       .  S
O605       Ni627   1.894       .  S
O605       Ni621   1.935       .  S
O605        H628   0.968       .  S
C606        O623   1.280       .  A
C606        O615   1.275       .  A
C606       C1523   1.409       .  S
O607       Ni626   1.901       .  S
O607        C613   1.270       .  A
O608       Ni626   1.919       .  S
O608        C610   1.268       .  A
Ni609       O612   1.940       .  S
Ni609       O614   1.925       .  S
C610        O620   1.271       .  A
C610        C764   1.446       .  S
O611       Ni627   1.910       .  S
O611        C617   1.268       .  A
O612        C617   1.272       .  A
C613        C752   1.408       .  S
O614        C616   1.280       .  A
O615       Ni626   1.897       .  S
C616        O622   1.283       .  A
C616        C761   1.439       .  S
C617        C753   1.438       .  S
H618        O619   0.965       .  S
O619       Ni627   1.883       .  S
O619       Ni621   1.858       .  S
O619       Ni626   1.877       .  S
O620       Ni621   1.930       .  S
Ni621       O625   1.882       .  S
Ni621       O623   1.922       .  S
O622       Ni627   1.954       .  S
C624        O625   1.263       .  A
C624        C749   1.429       .  S
O629       Ni635   1.981       .  S
O629        C650   1.290       .  A
O630       Ni653   1.954       .  S
O630        C639   1.269       .  A
O631       Ni635   1.890       .  S
O631       Ni653   1.910       .  S
O631       Ni647   1.903       .  S
O631        H654   0.966       .  S
C632        O649   1.276       .  A
C632        O641   1.273       .  A
C632        C756   1.408       .  S
O633       Ni652   1.883       .  S
O633        C639   1.255       .  A
O634       Ni652   1.904       .  S
O634        C636   1.265       .  A
Ni635       O638   1.941       .  S
Ni635       O640   1.936       .  S
C636        O646   1.277       .  A
C636        C768   1.448       .  S
O637       Ni653   1.931       .  S
O637        C643   1.285       .  A
O638        C643   1.286       .  A
C639        C748   1.456       .  S
O640        C642   1.273       .  A
C642        O648   1.270       .  A
C642        C765   1.455       .  S
C643        C754   1.440       .  S
H644        O645   0.967       .  S
O645       Ni653   1.919       .  S
O645       Ni647   1.897       .  S
O645       Ni652   1.913       .  S
O646       Ni647   1.958       .  S
Ni647       O651   1.932       .  S
O648       Ni653   1.923       .  S
C650        O651   1.277       .  A
C650        C745   1.485       .  S
O655       Ni661   1.928       .  S
O655        C676   1.276       .  A
O656       Ni679   1.881       .  S
O656        C665   1.264       .  A
O657       Ni661   1.873       .  S
O657       Ni679   1.860       .  S
O657       Ni673   1.888       .  S
O657        H680   0.964       .  S
C658        O675   1.269       .  A
C658        O667   1.266       .  A
C658        C739   1.426       .  S
O659       Ni678   1.910       .  S
O659        C665   1.267       .  A
O660       Ni678   1.914       .  S
O660        C662   1.276       .  A
Ni661       O664   1.919       .  S
Ni661       O666   1.912       .  S
C662        O672   1.285       .  A
C662        C742   1.440       .  S
O663       Ni679   1.921       .  S
O663        C669   1.280       .  A
O664        C669   1.282       .  A
C665        C751   1.411       .  S
O666        C668   1.267       .  A
O667       Ni678   1.916       .  S
C668        O674   1.276       .  A
C668        C743   1.451       .  S
H670        O671   0.967       .  S
O671       Ni679   1.932       .  S
O671       Ni673   1.895       .  S
O671       Ni678   1.908       .  S
O672       Ni673   1.965       .  S
Ni673       O677   1.886       .  S
Ni673       O675   1.914       .  S
O674       Ni679   1.944       .  S
C676        O677   1.271       .  A
C676        C750   1.429       .  S
O681       Ni687   1.977       .  S
O681        C702   1.286       .  A
O682       Ni705   1.950       .  S
O682        C691   1.271       .  A
O683       Ni687   1.883       .  S
O683       Ni705   1.905       .  S
O683       Ni699   1.906       .  S
O683        H706   0.965       .  S
C684        O701   1.275       .  A
C684        O693   1.271       .  A
C684        C736   1.408       .  S
O685       Ni704   1.896   1_565  S
O685        C691   1.260       .  A
O686       Ni704   1.913   1_565  S
O686        C688   1.269       .  A
Ni687       O690   1.950       .  S
Ni687       O692   1.913       .  S
C688        O698   1.280       .  A
C688       C1512   1.452       .  S
O689       Ni705   1.938       .  S
O689        C695   1.286       .  A
O690        C695   1.288       .  A
C691        C747   1.458       .  S
O692        C694   1.268       .  A
C694        O700   1.271       .  A
C694        C741   1.437       .  S
C695        C734   1.451       .  S
H696        O697   0.967   1_545  S
O697       Ni705   1.914       .  S
O697       Ni699   1.898       .  S
O697       Ni704   1.906   1_565  S
O698       Ni699   1.965       .  S
Ni699       O703   1.930       .  S
O700       Ni705   1.925       .  S
C702        O703   1.278       .  A
C702        C746   1.485       .  S
O707       Ni713   1.882       .  S
O707        C728   1.248       .  A
O708       Ni731   1.906       .  S
O708        C717   1.268       .  A
O709       Ni713   1.918       .  S
O709       Ni731   1.894       .  S
O709       Ni725   1.928       .  S
O709        H732   0.967       .  S
C710        O727   1.287       .  A
C710        O719   1.281       .  A
C710        C740   1.431       .  S
O711       Ni730   1.967       .  S
O711        C717   1.285       .  A
O712       Ni730   1.935       .  S
O712        C714   1.273       .  A
Ni713      O1484   1.925   1_455  S
Ni713       O718   1.870       .  S
C714        O724   1.266       .  A
C714        C733   1.447       .  S
O715      Ni1499   1.894       .  S
O715        C721   1.271       .  A
O716      Ni1481   1.925       .  S
O716        C721   1.276       .  A
C717        C759   1.461   1_455  S
O718        C720   1.254       .  A
O719       Ni730   1.925       .  S
C720        O726   1.270       .  A
C720        C735   1.412       .  S
C721        C738   1.416       .  S
H722        O723   0.966       .  S
O723       Ni731   1.896       .  S
O723       Ni725   1.898       .  S
O723       Ni730   1.893       .  S
O724       Ni725   1.913       .  S
Ni725       O729   1.946       .  S
Ni725       O727   1.934       .  S
O726       Ni731   1.932       .  S
C728        O729   1.268       .  A
C728        C758   1.435       .  S
Ni731      O1483   1.894   1_455  S
C733        C734   1.215       .  T
C735        C736   1.192       .  T
C737        C738   1.196       .  T
C739        C740   1.203       .  T
C741        C742   1.208       .  T
C743        C744   1.216       .  T
C744       C1456   1.452       .  S
C751        C752   1.192       .  T
C753        C754   1.209       .  T
C755       C1374   1.409   1_455  S
C755        C756   1.190       .  T
C757       C1526   1.209       .  T
C758       C1525   1.209       .  T
C759       C1336   1.221   1_556  T
C760       C1335   1.221       .  T
C761        C762   1.208       .  T
C763        C764   1.212       .  T
C765        C766   1.219       .  T
C767        C768   1.214       .  T
O769       Ni775   1.946       .  S
O769        C790   1.279       .  A
O770       Ni793   1.917       .  S
O770        C779   1.275       .  A
O771       Ni775   1.877       .  S
O771       Ni793   1.880       .  S
O771       Ni787   1.898       .  S
O771        H794   0.965       .  S
C772        O789   1.267       .  A
C772        O781   1.269       .  A
C772        C954   1.439       .  S
O773       Ni792   1.920       .  S
O773        C779   1.271       .  A
O774       Ni792   1.915       .  S
O774        C776   1.278       .  A
Ni775       O778   1.930       .  S
C776        O786   1.293       .  A
C776        C958   1.458       .  S
O777       Ni793   1.952       .  S
O777        C783   1.290       .  A
O778        C783   1.284       .  A
C779        C949   1.439   1_655  S
O780        C782   1.266       .  A
O781       Ni792   1.931       .  S
C782        O788   1.275       .  A
C782        C959   1.446       .  S
C783       C1339   1.446   1_545  S
H784        O785   0.967       .  S
O785       Ni793   1.941       .  S
O785       Ni787   1.899       .  S
O785       Ni792   1.909       .  S
O786       Ni787   1.988       .  S
Ni787       O791   1.912       .  S
Ni787       O789   1.917       .  S
C790        O791   1.278       .  A
C790        C952   1.460       .  S
O795       Ni801   1.937       .  S
O795        C816   1.275       .  A
O796       Ni819   1.889       .  S
O796        C805   1.270       .  A
O797       Ni801   1.907       .  S
O797       Ni819   1.894       .  S
O797       Ni813   1.935       .  S
O797        H820   0.968       .  S
C798        O815   1.280       .  A
C798        O807   1.275       .  A
O799       Ni818   1.901       .  S
O799        C805   1.270       .  A
O800       Ni818   1.919       .  S
O800        C802   1.268       .  A
Ni801       O804   1.940       .  S
Ni801       O806   1.925       .  S
C802        O812   1.271       .  A
C802        C956   1.446       .  S
O803       Ni819   1.910       .  S
O803        C809   1.268       .  A
O804        C809   1.272       .  A
C805        C944   1.408       .  S
O806        C808   1.280       .  A
O807       Ni818   1.897       .  S
C808        O814   1.283       .  A
C808        C953   1.439       .  S
C809        C945   1.438       .  S
H810        O811   0.965       .  S
O811       Ni819   1.883       .  S
O811       Ni813   1.858       .  S
O811       Ni818   1.877       .  S
O812       Ni813   1.930       .  S
Ni813       O817   1.882       .  S
Ni813       O815   1.922       .  S
O814       Ni819   1.954       .  S
C816        O817   1.263       .  A
C816        C941   1.429       .  S
O821       Ni827   1.981       .  S
O821        C842   1.290       .  A
O822       Ni845   1.954       .  S
O822        C831   1.269       .  A
O823       Ni827   1.890       .  S
O823       Ni845   1.910       .  S
O823       Ni839   1.903       .  S
O823        H846   0.966       .  S
C824        O841   1.276       .  A
C824        O833   1.273       .  A
C824        C948   1.408       .  S
O825       Ni844   1.883       .  S
O825        C831   1.255       .  A
O826       Ni844   1.904       .  S
O826        C828   1.265       .  A
Ni827       O830   1.941       .  S
Ni827       O832   1.936       .  S
C828        O838   1.277       .  A
C828        C960   1.448       .  S
O829       Ni845   1.931       .  S
O829        C835   1.285       .  A
O830        C835   1.286       .  A
C831        C940   1.456       .  S
O832        C834   1.273       .  A
O833      Ni1228   1.908       .  S
C834        O840   1.270       .  A
C834        C957   1.455       .  S
C835        C946   1.440       .  S
H836        O837   0.967       .  S
O837       Ni845   1.919       .  S
O837       Ni839   1.897       .  S
O837       Ni844   1.913       .  S
O838       Ni839   1.958       .  S
Ni839       O843   1.932       .  S
Ni839      O1225   1.901   1_545  S
O840       Ni845   1.923       .  S
O841      Ni1223   1.901       .  S
C842        O843   1.277       .  A
C842        C937   1.485       .  S
Ni844      O1217   1.908   1_545  S
O847       Ni853   1.928       .  S
O847        C868   1.276       .  A
O848       Ni871   1.881       .  S
O848        C857   1.264       .  A
O849       Ni853   1.873       .  S
O849       Ni871   1.860       .  S
O849       Ni865   1.888       .  S
O849        H872   0.964       .  S
C850        O867   1.269       .  A
C850        O859   1.266       .  A
C850        C931   1.426       .  S
O851       Ni870   1.910       .  S
O851        C857   1.267       .  A
O852       Ni870   1.914       .  S
O852        C854   1.276       .  A
Ni853       O856   1.919       .  S
Ni853       O858   1.912       .  S
C854        O864   1.285       .  A
C854        C934   1.440       .  S
O855       Ni871   1.921       .  S
O855        C861   1.280       .  A
O856        C861   1.282       .  A
C857        C943   1.411       .  S
O858        C860   1.267       .  A
O859       Ni870   1.916       .  S
C860        O866   1.276       .  A
C860        C935   1.451       .  S
C861       C1313   1.419       .  S
H862        O863   0.967       .  S
O863       Ni871   1.932       .  S
O863       Ni865   1.895       .  S
O863       Ni870   1.908       .  S
O864       Ni865   1.965       .  S
Ni865       O869   1.886       .  S
Ni865       O867   1.914       .  S
O866       Ni871   1.944       .  S
C868        O869   1.271       .  A
C868        C942   1.429       .  S
O873       Ni879   1.977       .  S
O873        C894   1.286       .  A
O874       Ni897   1.950       .  S
O874        C883   1.271       .  A
O875       Ni879   1.883       .  S
O875       Ni897   1.905       .  S
O875       Ni891   1.906       .  S
O875        H898   0.965       .  S
C876        O893   1.275       .  A
C876        O885   1.271       .  A
C876        C928   1.408       .  S
O877       Ni896   1.896       .  S
O877        C883   1.260       .  A
O878       Ni896   1.913       .  S
O878        C880   1.269       .  A
Ni879       O882   1.950       .  S
Ni879       O884   1.913       .  S
C880        O890   1.280       .  A
O881       Ni897   1.938       .  S
O881        C887   1.286       .  A
O882        C887   1.288       .  A
C883        C939   1.458       .  S
O884        C886   1.268       .  A
O885      Ni1280   1.907       .  S
C886        O892   1.271       .  A
C886        C933   1.437       .  S
C887        C926   1.451       .  S
H888        O889   0.967       .  S
O889       Ni897   1.914       .  S
O889       Ni891   1.898       .  S
O889       Ni896   1.906       .  S
O890       Ni891   1.965       .  S
Ni891       O895   1.930       .  S
Ni891      O1277   1.902       .  S
O892       Ni897   1.925       .  S
O893      Ni1275   1.902   1_545  S
C894        O895   1.278       .  A
C894        C938   1.485       .  S
Ni896      O1269   1.907       .  S
O899       Ni905   1.882       .  S
O899        C920   1.248       .  A
O900       Ni923   1.906       .  S
O900        C909   1.268       .  A
O901       Ni905   1.918       .  S
O901       Ni923   1.894       .  S
O901       Ni917   1.928       .  S
O901        H924   0.967       .  S
C902        O919   1.287       .  A
C902        O911   1.281       .  A
C902        C932   1.431       .  S
O903       Ni922   1.967       .  S
O903        C909   1.285       .  A
O904       Ni922   1.935       .  S
O904        C906   1.273       .  A
Ni905       O910   1.870       .  S
C906        O916   1.266       .  A
C906        C925   1.447       .  S
O907        C913   1.271       .  A
O908        C913   1.276       .  A
C909        C951   1.461       .  S
O910        C912   1.254       .  A
O911       Ni922   1.925       .  S
C912        O918   1.270       .  A
C912        C927   1.412       .  S
C913        C930   1.416       .  S
H914        O915   0.966       .  S
O915       Ni923   1.896       .  S
O915       Ni917   1.898       .  S
O915       Ni922   1.893       .  S
O916       Ni917   1.913       .  S
Ni917       O921   1.946       .  S
Ni917       O919   1.934       .  S
O918       Ni923   1.932       .  S
C920        O921   1.268       .  A
C920        C950   1.435       .  S
C925        C926   1.215       .  T
C927        C928   1.192       .  T
C929       C1245   1.419   1_545  S
C929        C930   1.196       .  T
C931        C932   1.203       .  T
C933        C934   1.208       .  T
C935        C936   1.216   1_655  T
C937       C1322   1.235   1_545  T
C938       C1321   1.235       .  T
C939       C1516   1.220       .  T
C940       C1515   1.220   1_544  T
C941       C1134   1.203   1_554  T
C942       C1133   1.203       .  T
C943        C944   1.192       .  T
C945        C946   1.209       .  T
C947        C948   1.190       .  T
C953        C954   1.208       .  T
C955       C1167   1.446       .  S
C955        C956   1.212       .  T
C957        C958   1.219       .  T
C959        C960   1.214       .  T
O961       Ni967   1.946       .  S
O961        C982   1.279       .  A
O962       Ni985   1.917       .  S
O962        C971   1.275       .  A
O963       Ni967   1.877       .  S
O963       Ni985   1.880       .  S
O963       Ni979   1.898       .  S
O963        H986   0.965       .  S
C964        O981   1.267       .  A
C964        O973   1.269       .  A
C964       C1146   1.439       .  S
O965       Ni984   1.920       .  S
O965        C971   1.271       .  A
O966       Ni984   1.915       .  S
O966        C968   1.278       .  A
Ni967       O970   1.930       .  S
C968        O978   1.293       .  A
C968       C1150   1.458       .  S
O969       Ni985   1.952       .  S
O969        C975   1.290       .  A
O970        C975   1.284       .  A
C971       C1141   1.439   1_655  S
O972        C974   1.266       .  A
O973       Ni984   1.931       .  S
C974        O980   1.275       .  A
C974       C1151   1.446       .  S
C975       C1531   1.446   1_545  S
H976        O977   0.966       .  S
O977       Ni985   1.941       .  S
O977       Ni979   1.899       .  S
O977       Ni984   1.909       .  S
O978       Ni979   1.988       .  S
Ni979       O983   1.912       .  S
Ni979       O981   1.917       .  S
C982        O983   1.278       .  A
C982       C1144   1.460       .  S
O987       Ni993   1.937       .  S
O987       C1008   1.275       .  A
O988      Ni1011   1.889       .  S
O988        C997   1.270       .  A
O989       Ni993   1.907       .  S
O989      Ni1011   1.894       .  S
O989      Ni1005   1.935       .  S
O989       H1012   0.968       .  S
C990       O1007   1.280       .  A
C990        O999   1.275       .  A
O991      Ni1010   1.901       .  S
O991        C997   1.270       .  A
O992      Ni1010   1.919       .  S
O992        C994   1.268       .  A
Ni993       O996   1.940       .  S
Ni993       O998   1.925       .  S
C994       O1004   1.271       .  A
C994       C1148   1.446       .  S
O995      Ni1011   1.910       .  S
O995       C1001   1.268       .  A
O996       C1001   1.272       .  A
C997       C1136   1.408       .  S
O998       C1000   1.280       .  A
O999      Ni1010   1.897       .  S
C1000      O1006   1.283       .  A
C1000      C1145   1.439       .  S
C1001      C1137   1.438       .  S
H1002      O1003   0.965       .  S
O1003     Ni1011   1.883       .  S
O1003     Ni1005   1.858       .  S
O1003     Ni1010   1.877       .  S
O1004     Ni1005   1.930       .  S
Ni1005     O1009   1.882       .  S
Ni1005     O1007   1.922       .  S
O1006     Ni1011   1.954       .  S
C1008      O1009   1.263       .  A
C1008      C1133   1.429       .  S
O1013     Ni1019   1.981       .  S
O1013      C1034   1.290       .  A
O1014     Ni1037   1.954       .  S
O1014      C1023   1.269       .  A
O1015     Ni1019   1.890       .  S
O1015     Ni1037   1.910       .  S
O1015     Ni1031   1.903       .  S
O1015      H1038   0.966       .  S
C1016      O1033   1.276       .  A
C1016      O1025   1.273       .  A
C1016      C1140   1.408       .  S
O1017     Ni1036   1.883       .  S
O1017      C1023   1.255       .  A
O1018     Ni1036   1.904       .  S
O1018      C1020   1.265       .  A
Ni1019     O1022   1.941       .  S
Ni1019     O1024   1.936       .  S
C1020      O1030   1.277       .  A
C1020      C1152   1.448       .  S
O1021     Ni1037   1.931       .  S
O1021      C1027   1.285       .  A
O1022      C1027   1.286       .  A
C1023      C1132   1.456       .  S
O1024      C1026   1.273       .  A
O1025     Ni1420   1.908       .  S
C1026      O1032   1.270       .  A
C1026      C1149   1.455       .  S
C1027      C1138   1.440       .  S
H1028      O1029   0.967       .  S
O1029     Ni1037   1.919       .  S
O1029     Ni1031   1.897       .  S
O1029     Ni1036   1.913       .  S
O1030     Ni1031   1.958       .  S
Ni1031     O1035   1.932       .  S
Ni1031     O1417   1.901   1_545  S
O1032     Ni1037   1.923       .  S
O1033     Ni1415   1.901       .  S
C1034      O1035   1.277       .  A
C1034      C1129   1.485       .  S
Ni1036     O1409   1.908   1_545  S
O1039     Ni1045   1.928       .  S
O1039      C1060   1.276       .  A
O1040     Ni1063   1.881       .  S
O1040      C1049   1.264       .  A
O1041     Ni1045   1.873       .  S
O1041     Ni1063   1.860       .  S
O1041     Ni1057   1.888       .  S
O1041      H1064   0.964       .  S
C1042      O1059   1.269       .  A
C1042      O1051   1.266       .  A
C1042      C1123   1.426       .  S
O1043     Ni1062   1.910       .  S
O1043      C1049   1.267       .  A
O1044     Ni1062   1.914       .  S
O1044      C1046   1.276       .  A
Ni1045     O1048   1.919       .  S
Ni1045     O1050   1.912       .  S
C1046      O1056   1.285       .  A
C1046      C1126   1.440       .  S
O1047     Ni1063   1.921       .  S
O1047      C1053   1.280       .  A
O1048      C1053   1.282       .  A
C1049      C1135   1.411       .  S
O1050      C1052   1.267       .  A
O1051     Ni1062   1.916       .  S
C1052      O1058   1.276       .  A
C1052      C1127   1.451       .  S
C1053      C1505   1.419       .  S
H1054      O1055   0.967       .  S
O1055     Ni1063   1.932       .  S
O1055     Ni1057   1.895       .  S
O1055     Ni1062   1.908       .  S
O1056     Ni1057   1.965       .  S
Ni1057     O1061   1.886       .  S
Ni1057     O1059   1.914       .  S
O1058     Ni1063   1.944       .  S
C1060      O1061   1.271       .  A
C1060      C1134   1.429       .  S
O1065     Ni1071   1.977       .  S
O1065      C1086   1.286       .  A
O1066     Ni1089   1.950       .  S
O1066      C1075   1.271       .  A
O1067     Ni1071   1.883       .  S
O1067     Ni1089   1.905       .  S
O1067     Ni1083   1.906       .  S
O1067      H1090   0.965       .  S
C1068      O1085   1.275       .  A
C1068      O1077   1.271       .  A
C1068      C1120   1.408       .  S
O1069     Ni1088   1.896       .  S
O1069      C1075   1.260       .  A
O1070     Ni1088   1.913       .  S
O1070      C1072   1.269       .  A
Ni1071     O1074   1.950       .  S
Ni1071     O1076   1.913       .  S
C1072      O1082   1.280       .  A
O1073     Ni1089   1.938       .  S
O1073      C1079   1.286       .  A
O1074      C1079   1.288       .  A
C1075      C1131   1.458       .  S
O1076      C1078   1.268       .  A
O1077     Ni1472   1.907       .  S
C1078      O1084   1.271       .  A
C1078      C1125   1.437       .  S
C1079      C1118   1.451       .  S
H1080      O1081   0.967       .  S
O1081     Ni1089   1.914       .  S
O1081     Ni1083   1.898       .  S
O1081     Ni1088   1.906       .  S
O1082     Ni1083   1.965       .  S
Ni1083     O1087   1.930       .  S
Ni1083     O1469   1.902       .  S
O1084     Ni1089   1.925       .  S
O1085     Ni1467   1.902   1_545  S
C1086      O1087   1.278       .  A
C1086      C1130   1.485       .  S
Ni1088     O1461   1.907       .  S
O1091     Ni1097   1.882       .  S
O1091      C1112   1.248       .  A
O1092     Ni1115   1.906       .  S
O1092      C1101   1.268       .  A
O1093     Ni1097   1.918       .  S
O1093     Ni1115   1.894       .  S
O1093     Ni1109   1.928       .  S
O1093      H1116   0.967       .  S
C1094      O1111   1.287       .  A
C1094      O1103   1.281       .  A
C1094      C1124   1.431       .  S
O1095     Ni1114   1.967       .  S
O1095      C1101   1.285       .  A
O1096     Ni1114   1.935       .  S
O1096      C1098   1.273       .  A
Ni1097     O1102   1.870       .  S
C1098      O1108   1.266       .  A
C1098      C1117   1.447       .  S
O1099      C1105   1.271       .  A
O1100      C1105   1.276       .  A
C1101      C1143   1.461       .  S
O1102      C1104   1.254       .  A
O1103     Ni1114   1.925       .  S
C1104      O1110   1.270       .  A
C1104      C1119   1.412       .  S
C1105      C1122   1.416       .  S
H1106      O1107   0.966       .  S
O1107     Ni1115   1.896       .  S
O1107     Ni1109   1.898       .  S
O1107     Ni1114   1.893       .  S
O1108     Ni1109   1.913       .  S
Ni1109     O1113   1.946       .  S
Ni1109     O1111   1.934       .  S
O1110     Ni1115   1.932       .  S
C1112      O1113   1.268       .  A
C1112      C1142   1.435       .  S
C1117      C1118   1.215       .  T
C1119      C1120   1.192       .  T
C1121      C1437   1.419   1_545  S
C1121      C1122   1.196       .  T
C1123      C1124   1.203       .  T
C1125      C1126   1.208       .  T
C1127      C1128   1.216   1_655  T
C1129      C1514   1.235   1_545  T
C1130      C1513   1.235       .  T
C1131      C1324   1.220   1_556  T
C1132      C1323   1.220   1_545  T
C1135      C1136   1.192       .  T
C1137      C1138   1.209       .  T
C1139      C1140   1.190       .  T
C1145      C1146   1.208       .  T
C1147      C1359   1.446       .  S
C1147      C1148   1.212       .  T
C1149      C1150   1.219       .  T
C1151      C1152   1.214       .  T
O1153     Ni1159   1.946       .  S
O1153      C1174   1.279       .  A
O1154     Ni1177   1.917       .  S
O1154      C1163   1.275       .  A
O1155     Ni1159   1.877       .  S
O1155     Ni1177   1.880       .  S
O1155     Ni1171   1.898       .  S
O1155      H1178   0.965       .  S
C1156      O1173   1.267       .  A
C1156      O1165   1.269       .  A
C1156      C1338   1.439       .  S
O1157     Ni1176   1.920       .  S
O1157      C1163   1.271       .  A
O1158     Ni1176   1.915       .  S
O1158      C1160   1.278       .  A
Ni1159     O1162   1.930       .  S
C1160      O1170   1.293       .  A
C1160      C1342   1.458       .  S
O1161     Ni1177   1.952       .  S
O1161      C1167   1.290       .  A
O1162      C1167   1.284       .  A
C1163      C1333   1.439   1_655  S
O1164      C1166   1.266       .  A
O1165     Ni1176   1.931       .  S
C1166      O1172   1.275       .  A
C1166      C1343   1.446       .  S
H1168      O1169   0.966       .  S
O1169     Ni1177   1.941       .  S
O1169     Ni1171   1.899       .  S
O1169     Ni1176   1.909       .  S
O1170     Ni1171   1.988       .  S
Ni1171     O1175   1.911       .  S
Ni1171     O1173   1.917       .  S
C1174      O1175   1.278       .  A
C1174      C1336   1.460       .  S
O1179     Ni1185   1.937       .  S
O1179      C1200   1.275       .  A
O1180     Ni1203   1.889       .  S
O1180      C1189   1.270       .  A
O1181     Ni1185   1.907       .  S
O1181     Ni1203   1.894       .  S
O1181     Ni1197   1.935       .  S
O1181      H1204   0.968       .  S
C1182      O1199   1.280       .  A
C1182      O1191   1.275       .  A
O1183     Ni1202   1.901       .  S
O1183      C1189   1.270       .  A
O1184     Ni1202   1.919       .  S
O1184      C1186   1.268       .  A
Ni1185     O1188   1.940       .  S
Ni1185     O1190   1.925       .  S
C1186      O1196   1.271       .  A
C1186      C1340   1.446       .  S
O1187     Ni1203   1.910       .  S
O1187      C1193   1.268       .  A
O1188      C1193   1.272       .  A
C1189      C1328   1.408       .  S
O1190      C1192   1.280       .  A
O1191     Ni1202   1.897       .  S
C1192      O1198   1.283       .  A
C1192      C1337   1.439       .  S
C1193      C1329   1.438       .  S
H1194      O1195   0.965       .  S
O1195     Ni1203   1.883       .  S
O1195     Ni1197   1.858       .  S
O1195     Ni1202   1.877       .  S
O1196     Ni1197   1.930       .  S
Ni1197     O1201   1.882       .  S
Ni1197     O1199   1.922       .  S
O1198     Ni1203   1.954       .  S
C1200      O1201   1.263       .  A
C1200      C1325   1.429       .  S
O1205     Ni1211   1.981       .  S
O1205      C1226   1.290       .  A
O1206     Ni1229   1.954       .  S
O1206      C1215   1.269       .  A
O1207     Ni1211   1.890       .  S
O1207     Ni1229   1.910       .  S
O1207     Ni1223   1.903       .  S
O1207      H1230   0.966       .  S
C1208      O1225   1.276       .  A
C1208      O1217   1.273       .  A
C1208      C1332   1.408       .  S
O1209     Ni1228   1.883       .  S
O1209      C1215   1.255       .  A
O1210     Ni1228   1.904       .  S
O1210      C1212   1.265       .  A
Ni1211     O1214   1.941       .  S
Ni1211     O1216   1.936       .  S
C1212      O1222   1.277       .  A
C1212      C1344   1.448       .  S
O1213     Ni1229   1.931       .  S
O1213      C1219   1.285       .  A
O1214      C1219   1.286       .  A
C1215      C1324   1.456       .  S
O1216      C1218   1.273       .  A
C1218      O1224   1.270       .  A
C1218      C1341   1.455       .  S
C1219      C1330   1.440       .  S
H1220      O1221   0.967       .  S
O1221     Ni1229   1.919       .  S
O1221     Ni1223   1.897       .  S
O1221     Ni1228   1.913       .  S
O1222     Ni1223   1.958       .  S
Ni1223     O1227   1.932       .  S
O1224     Ni1229   1.923       .  S
C1226      O1227   1.277       .  A
C1226      C1321   1.485       .  S
O1231     Ni1237   1.928       .  S
O1231      C1252   1.276       .  A
O1232     Ni1255   1.881       .  S
O1232      C1241   1.264       .  A
O1233     Ni1237   1.873       .  S
O1233     Ni1255   1.860       .  S
O1233     Ni1249   1.888       .  S
O1233      H1256   0.964       .  S
C1234      O1251   1.269       .  A
C1234      O1243   1.266       .  A
C1234      C1315   1.426       .  S
O1235     Ni1254   1.910       .  S
O1235      C1241   1.267       .  A
O1236     Ni1254   1.914       .  S
O1236      C1238   1.276       .  A
Ni1237     O1240   1.919       .  S
Ni1237     O1242   1.912       .  S
C1238      O1248   1.285       .  A
C1238      C1318   1.440       .  S
O1239     Ni1255   1.921       .  S
O1239      C1245   1.280       .  A
O1240      C1245   1.282       .  A
C1241      C1327   1.411       .  S
O1242      C1244   1.267       .  A
O1243     Ni1254   1.916       .  S
C1244      O1250   1.276       .  A
C1244      C1319   1.451       .  S
H1246      O1247   0.967       .  S
O1247     Ni1255   1.932       .  S
O1247     Ni1249   1.895       .  S
O1247     Ni1254   1.908       .  S
O1248     Ni1249   1.965       .  S
Ni1249     O1253   1.886       .  S
Ni1249     O1251   1.914       .  S
O1250     Ni1255   1.944       .  S
C1252      O1253   1.271       .  A
C1252      C1326   1.429       .  S
O1257     Ni1263   1.977       .  S
O1257      C1278   1.286       .  A
O1258     Ni1281   1.950       .  S
O1258      C1267   1.271       .  A
O1259     Ni1263   1.883       .  S
O1259     Ni1281   1.905       .  S
O1259     Ni1275   1.906       .  S
O1259      H1282   0.965       .  S
C1260      O1277   1.275       .  A
C1260      O1269   1.271       .  A
C1260      C1312   1.408       .  S
O1261     Ni1280   1.896   1_565  S
O1261      C1267   1.260       .  A
O1262     Ni1280   1.913   1_565  S
O1262      C1264   1.269       .  A
Ni1263     O1266   1.950       .  S
Ni1263     O1268   1.913       .  S
C1264      O1274   1.280       .  A
O1265     Ni1281   1.938       .  S
O1265      C1271   1.286       .  A
O1266      C1271   1.288       .  A
C1267      C1323   1.458       .  S
O1268      C1270   1.268       .  A
C1270      O1276   1.271       .  A
C1270      C1317   1.437       .  S
C1271      C1310   1.451       .  S
H1272      O1273   0.967   1_545  S
O1273     Ni1281   1.914       .  S
O1273     Ni1275   1.898       .  S
O1273     Ni1280   1.906   1_565  S
O1274     Ni1275   1.965       .  S
Ni1275     O1279   1.930       .  S
O1276     Ni1281   1.925       .  S
C1278      O1279   1.278       .  A
C1278      C1322   1.485       .  S
O1283     Ni1289   1.882       .  S
O1283      C1304   1.248       .  A
O1284     Ni1307   1.906       .  S
O1284      C1293   1.268       .  A
O1285     Ni1289   1.918       .  S
O1285     Ni1307   1.894       .  S
O1285     Ni1301   1.928       .  S
O1285      H1308   0.967       .  S
C1286      O1303   1.287       .  A
C1286      O1295   1.281       .  A
C1286      C1316   1.431       .  S
O1287     Ni1306   1.967       .  S
O1287      C1293   1.285       .  A
O1288     Ni1306   1.935       .  S
O1288      C1290   1.273       .  A
Ni1289     O1294   1.870       .  S
C1290      O1300   1.266       .  A
C1290      C1309   1.447       .  S
O1291      C1297   1.271       .  A
O1292      C1297   1.276       .  A
C1293      C1335   1.461       .  S
O1294      C1296   1.254       .  A
O1295     Ni1306   1.925       .  S
C1296      O1302   1.270       .  A
C1296      C1311   1.412       .  S
C1297      C1314   1.416       .  S
H1298      O1299   0.966       .  S
O1299     Ni1307   1.896       .  S
O1299     Ni1301   1.898       .  S
O1299     Ni1306   1.893       .  S
O1300     Ni1301   1.913       .  S
Ni1301     O1305   1.946       .  S
Ni1301     O1303   1.934       .  S
O1302     Ni1307   1.932       .  S
C1304      O1305   1.268       .  A
C1304      C1334   1.435       .  S
C1309      C1310   1.215       .  T
C1311      C1312   1.192       .  T
C1313      C1314   1.196       .  T
C1315      C1316   1.203       .  T
C1317      C1318   1.208       .  T
C1319      C1320   1.216   1_655  T
C1325      C1518   1.203   1_554  T
C1326      C1517   1.203       .  T
C1327      C1328   1.192       .  T
C1329      C1330   1.209       .  T
C1331      C1332   1.190       .  T
C1337      C1338   1.208       .  T
C1339      C1340   1.212       .  T
C1341      C1342   1.219       .  T
C1343      C1344   1.214       .  T
O1345     Ni1351   1.946       .  S
O1345      C1366   1.279       .  A
O1346     Ni1369   1.917       .  S
O1346      C1355   1.275       .  A
O1347     Ni1351   1.877       .  S
O1347     Ni1369   1.880       .  S
O1347     Ni1363   1.898       .  S
O1347      H1370   0.965       .  S
C1348      O1365   1.267       .  A
C1348      O1357   1.269       .  A
C1348      C1530   1.439       .  S
O1349     Ni1368   1.920       .  S
O1349      C1355   1.271       .  A
O1350     Ni1368   1.915       .  S
O1350      C1352   1.278       .  A
Ni1351     O1354   1.930       .  S
C1352      O1362   1.293       .  A
C1352      C1534   1.458       .  S
O1353     Ni1369   1.952       .  S
O1353      C1359   1.290       .  A
O1354      C1359   1.284       .  A
C1355      C1525   1.439   1_655  S
O1356      C1358   1.266       .  A
O1357     Ni1368   1.931       .  S
C1358      O1364   1.275       .  A
C1358      C1535   1.446       .  S
H1360      O1361   0.966       .  S
O1361     Ni1369   1.941       .  S
O1361     Ni1363   1.899       .  S
O1361     Ni1368   1.909       .  S
O1362     Ni1363   1.988       .  S
Ni1363     O1367   1.912       .  S
Ni1363     O1365   1.917       .  S
C1366      O1367   1.278       .  A
C1366      C1528   1.460       .  S
O1371     Ni1377   1.937       .  S
O1371      C1392   1.275       .  A
O1372     Ni1395   1.889       .  S
O1372      C1381   1.270       .  A
O1373     Ni1377   1.907       .  S
O1373     Ni1395   1.894       .  S
O1373     Ni1389   1.935       .  S
O1373      H1396   0.968       .  S
C1374      O1391   1.280       .  A
C1374      O1383   1.275       .  A
O1375     Ni1394   1.901       .  S
O1375      C1381   1.270       .  A
O1376     Ni1394   1.919       .  S
O1376      C1378   1.268       .  A
Ni1377     O1380   1.940       .  S
Ni1377     O1382   1.925       .  S
C1378      O1388   1.271       .  A
C1378      C1532   1.446       .  S
O1379     Ni1395   1.910       .  S
O1379      C1385   1.268       .  A
O1380      C1385   1.272       .  A
C1381      C1520   1.408       .  S
O1382      C1384   1.280       .  A
O1383     Ni1394   1.897       .  S
C1384      O1390   1.283       .  A
C1384      C1529   1.439       .  S
C1385      C1521   1.438       .  S
H1386      O1387   0.965       .  S
O1387     Ni1395   1.883       .  S
O1387     Ni1389   1.858       .  S
O1387     Ni1394   1.877       .  S
O1388     Ni1389   1.930       .  S
Ni1389     O1393   1.882       .  S
Ni1389     O1391   1.922       .  S
O1390     Ni1395   1.954       .  S
C1392      O1393   1.263       .  A
C1392      C1517   1.429       .  S
O1397     Ni1403   1.981       .  S
O1397      C1418   1.290       .  A
O1398     Ni1421   1.954       .  S
O1398      C1407   1.269       .  A
O1399     Ni1403   1.890       .  S
O1399     Ni1421   1.910       .  S
O1399     Ni1415   1.903       .  S
O1399      H1422   0.966       .  S
C1400      O1417   1.276       .  A
C1400      O1409   1.273       .  A
C1400      C1524   1.408       .  S
O1401     Ni1420   1.883       .  S
O1401      C1407   1.255       .  A
O1402     Ni1420   1.904       .  S
O1402      C1404   1.265       .  A
Ni1403     O1406   1.941       .  S
Ni1403     O1408   1.936       .  S
C1404      O1414   1.277       .  A
C1404      C1536   1.448       .  S
O1405     Ni1421   1.931       .  S
O1405      C1411   1.285       .  A
O1406      C1411   1.286       .  A
C1407      C1516   1.456       .  S
O1408      C1410   1.273       .  A
C1410      O1416   1.270       .  A
C1410      C1533   1.455       .  S
C1411      C1522   1.440       .  S
H1412      O1413   0.967       .  S
O1413     Ni1421   1.919       .  S
O1413     Ni1415   1.897       .  S
O1413     Ni1420   1.913       .  S
O1414     Ni1415   1.958       .  S
Ni1415     O1419   1.932       .  S
O1416     Ni1421   1.923       .  S
C1418      O1419   1.277       .  A
C1418      C1513   1.485       .  S
O1423     Ni1429   1.928       .  S
O1423      C1444   1.276       .  A
O1424     Ni1447   1.881       .  S
O1424      C1433   1.264       .  A
O1425     Ni1429   1.873       .  S
O1425     Ni1447   1.860       .  S
O1425     Ni1441   1.888       .  S
O1425      H1448   0.964       .  S
C1426      O1443   1.269       .  A
C1426      O1435   1.266       .  A
C1426      C1507   1.426       .  S
O1427     Ni1446   1.910       .  S
O1427      C1433   1.267       .  A
O1428     Ni1446   1.914       .  S
O1428      C1430   1.276       .  A
Ni1429     O1432   1.919       .  S
Ni1429     O1434   1.912       .  S
C1430      O1440   1.285       .  A
C1430      C1510   1.440       .  S
O1431     Ni1447   1.921       .  S
O1431      C1437   1.280       .  A
O1432      C1437   1.282       .  A
C1433      C1519   1.411       .  S
O1434      C1436   1.267       .  A
O1435     Ni1446   1.916       .  S
C1436      O1442   1.276       .  A
C1436      C1511   1.451       .  S
H1438      O1439   0.967       .  S
O1439     Ni1447   1.932       .  S
O1439     Ni1441   1.895       .  S
O1439     Ni1446   1.908       .  S
O1440     Ni1441   1.965       .  S
Ni1441     O1445   1.886       .  S
Ni1441     O1443   1.914       .  S
O1442     Ni1447   1.944       .  S
C1444      O1445   1.271       .  A
C1444      C1518   1.429       .  S
O1449     Ni1455   1.977       .  S
O1449      C1470   1.286       .  A
O1450     Ni1473   1.950       .  S
O1450      C1459   1.271       .  A
O1451     Ni1455   1.883       .  S
O1451     Ni1473   1.905       .  S
O1451     Ni1467   1.906       .  S
O1451      H1474   0.965       .  S
C1452      O1469   1.275       .  A
C1452      O1461   1.271       .  A
C1452      C1504   1.408       .  S
O1453     Ni1472   1.896   1_565  S
O1453      C1459   1.260       .  A
O1454     Ni1472   1.913   1_565  S
O1454      C1456   1.269       .  A
Ni1455     O1458   1.950       .  S
Ni1455     O1460   1.913       .  S
C1456      O1466   1.280       .  A
O1457     Ni1473   1.938       .  S
O1457      C1463   1.286       .  A
O1458      C1463   1.288       .  A
C1459      C1515   1.458       .  S
O1460      C1462   1.268       .  A
C1462      O1468   1.271       .  A
C1462      C1509   1.437       .  S
C1463      C1502   1.451       .  S
H1464      O1465   0.967   1_545  S
O1465     Ni1473   1.914       .  S
O1465     Ni1467   1.898       .  S
O1465     Ni1472   1.906   1_565  S
O1466     Ni1467   1.965       .  S
Ni1467     O1471   1.930       .  S
O1468     Ni1473   1.925       .  S
C1470      O1471   1.278       .  A
C1470      C1514   1.485       .  S
O1475     Ni1481   1.882       .  S
O1475      C1496   1.248       .  A
O1476     Ni1499   1.906       .  S
O1476      C1485   1.268       .  A
O1477     Ni1481   1.918       .  S
O1477     Ni1499   1.894       .  S
O1477     Ni1493   1.928       .  S
O1477      H1500   0.967       .  S
C1478      O1495   1.287       .  A
C1478      O1487   1.281       .  A
C1478      C1508   1.431       .  S
O1479     Ni1498   1.967       .  S
O1479      C1485   1.285       .  A
O1480     Ni1498   1.935       .  S
O1480      C1482   1.273       .  A
Ni1481     O1486   1.870       .  S
C1482      O1492   1.266       .  A
C1482      C1501   1.447       .  S
O1483      C1489   1.271       .  A
O1484      C1489   1.276       .  A
C1485      C1527   1.461       .  S
O1486      C1488   1.254       .  A
O1487     Ni1498   1.925       .  S
C1488      O1494   1.270       .  A
C1488      C1503   1.412       .  S
C1489      C1506   1.416       .  S
H1490      O1491   0.966       .  S
O1491     Ni1499   1.896       .  S
O1491     Ni1493   1.898       .  S
O1491     Ni1498   1.893       .  S
O1492     Ni1493   1.913       .  S
Ni1493     O1497   1.946       .  S
Ni1493     O1495   1.934       .  S
O1494     Ni1499   1.932       .  S
C1496      O1497   1.268       .  A
C1496      C1526   1.435       .  S
C1501      C1502   1.215       .  T
C1503      C1504   1.192       .  T
C1505      C1506   1.196       .  T
C1507      C1508   1.203       .  T
C1509      C1510   1.208       .  T
C1511      C1512   1.216   1_655  T
C1519      C1520   1.192       .  T
C1521      C1522   1.209       .  T
C1523      C1524   1.190       .  T
C1529      C1530   1.208       .  T
C1531      C1532   1.212       .  T
C1533      C1534   1.219       .  T
C1535      C1536   1.214       .  T
