geometry optimzed in LAMMPS
_audit_creation_date              2020-11-30 
_audit_creation_method            'lammps2cif' 
_symmetry_space_group_name_H-M    'P1' 
_symmetry_Int_Tables_number       1 
_symmetry_cell_setting            triclinic 
loop_ 
_symmetry_equiv_pos_as_xyz 
  x,y,z 
_cell_length_a                    39.94748096 
_cell_length_b                    26.329211332887613 
_cell_length_c                    41.852633370011034 
_cell_angle_alpha                 90.39831037447829 
_cell_angle_beta                  91.80992933638933 
_cell_angle_gamma                 89.21353757901663 
loop_ 
_atom_site_label 
_atom_site_type_symbol 
_atom_site_fract_x 
_atom_site_fract_y 
_atom_site_fract_z 
_atom_site_charge 
O1          O  0.10340384  0.31234801  0.45948086    -0.72700
O2          O  0.05122679  0.21830373  0.40082626    -0.73700
O3          O  0.10304220  0.20538194  0.44853475    -0.62300
O4          O  0.05171388  0.32484632  0.41202151    -0.70700
O5          O  0.09000898  0.33239601  0.37496252    -0.70300
O6          O  0.14028000  0.21328021  0.41081562    -0.61500
O7          O  0.08891748  0.22758372  0.36358939    -0.74000
O8          O  0.14138785  0.31850431  0.42219069    -0.72800
Cu9        Cu  0.07596891  0.26491038  0.43158130     1.04600
Cu10       Cu  0.11646752  0.27326145  0.39169661     1.04300
C11         C  0.13090719  0.33010791  0.44985699     0.93500
C12         C  0.06171418  0.20847465  0.37284501     0.92600
C13         C  0.12993598  0.19047329  0.43538464     0.84800
C14         C  0.06275390  0.34679490  0.38745883     0.91100
C15         C  0.95738787  0.06888873  0.28340109     0.02500
C16         C  0.99259016  0.07015189  0.28664769     0.02500
C17         C  0.01183048  0.03479126  0.26968807    -0.18000
C18         C  0.99642759  0.99767963  0.25015966     0.02500
C19         C  0.96107270  0.99809130  0.24603307     0.02500
C20         C  0.94207171  0.03395132  0.26269634    -0.18000
H21         H  0.91495818  0.03391171  0.26014841     0.04500
H22         H  0.03885489  0.03444989  0.27309964     0.04500
C23         C  0.99201012  0.50612887  0.32085693     0.02500
C24         C  0.95675478  0.50845472  0.31660536     0.02500
C25         C  0.94229414  0.54516118  0.29625172    -0.18000
C26         C  0.96227856  0.57791692  0.27910290     0.02500
C27         C  0.99744733  0.57504295  0.28319355     0.02500
C28         C  0.01193484  0.53988494  0.30449180    -0.18000
H29         H  0.03898280  0.53708678  0.30713764     0.04500
H30         H  0.91531661  0.54668895  0.29257519     0.04500
O31         O  0.10756115  0.69907442  0.12548746    -0.72700
O32         O  0.05788851  0.81301333  0.16829988    -0.73700
O33         O  0.10294551  0.80652696  0.11738805    -0.62300
O34         O  0.06229477  0.70688146  0.17589016    -0.70700
O35         O  0.10419094  0.71825530  0.21135171    -0.70300
O36         O  0.14593852  0.81612480  0.15154535    -0.61500
O37         O  0.10121334  0.82433790  0.20214588    -0.74000
O38         O  0.15004898  0.70871067  0.16027038    -0.72800
Cu39       Cu  0.08125378  0.75598887  0.14552011     1.04600
Cu40       Cu  0.12692703  0.76703607  0.18251085     1.04300
C41         C  0.13663251  0.68560404  0.13621783     0.93500
C42         C  0.07178921  0.83643326  0.19190924     0.92600
C43         C  0.13066386  0.82759140  0.12520484     0.84800
C44         C  0.07633891  0.69796649  0.20308658     0.91100
C45         C  0.71026243  0.46240275  0.05160815     0.86700
C46         C  0.72810916  0.50291269  0.07211342    -0.53500
C47         C  0.74911915  0.53281432  0.05548768     0.09700
C48         C  0.74987623  0.52000146  0.01953933     0.20600
C49         C  0.69229274  0.49331947  0.02476317    -0.54200
C50         C  0.71305202  0.52318535  0.00793580     0.09800
C51         C  0.73827149  0.43343076  0.03488936    -0.53800
C52         C  0.75892951  0.46322625  0.01813337     0.10300
H53         H  0.72477633  0.50702718  0.09766007     0.14900
H54         H  0.75739605  0.54255712  0.51351140     0.00600
H55         H  0.66548755  0.49485301  0.02026710     0.15200
H56         H  0.74065134  0.39225935  0.03519502     0.14900
C57         C  0.76255561  0.04161903  0.98296722     0.86700
C58         C  0.78262915  0.00491195  0.00515704    -0.53500
C59         C  0.76313147  0.97364871  0.02230491     0.09700
C60         C  0.72537070  0.98161197  0.01604959     0.20600
C61         C  0.72932930  0.00069349  0.47086798    -0.54200
C62         C  0.71045452  0.96863628  0.48820593     0.09800
C63         C  0.73849802  0.06941588  0.00504467    -0.53800
C64         C  0.71909207  0.03839955  0.02212437     0.10300
H65         H  0.80962667  0.00205355  0.00729892     0.14900
H66         H  0.70955499  0.95677364  0.03048075     0.00600
H67         H  0.73023846  0.99892999  0.44497660     0.15200
H68         H  0.73710609  0.11055423  0.00724759     0.14900
O69         O  0.65128716  0.28089058  0.13939312    -0.72700
O70         O  0.60137847  0.16804279  0.17872085    -0.73700
O71         O  0.65083909  0.17337359  0.13219174    -0.62300
O72         O  0.60213000  0.27381849  0.18611443    -0.70700
O73         O  0.56256856  0.28192880  0.14785091    -0.70300
O74         O  0.61096235  0.17882485  0.09434581    -0.61500
O75         O  0.56127972  0.17467266  0.14098527    -0.74000
O76         O  0.61153005  0.28625753  0.10138017    -0.72800
Cu77       Cu  0.62785127  0.22369607  0.16035194     1.04600
Cu78       Cu  0.58522037  0.23060508  0.11975148     1.04300
C79         C  0.63877650  0.30225233  0.11433932     0.93500
C80         C  0.57330783  0.15402606  0.16641914     0.92600
C81         C  0.63872208  0.15968901  0.10492341     0.84800
C82         C  0.57475756  0.29370842  0.17545961     0.91100
O83         O  0.65631382  0.67989603  0.40474198    -0.72700
O84         O  0.61064887  0.77892647  0.34473937    -0.73700
O85         O  0.65618693  0.78682557  0.39832457    -0.62300
O86         O  0.61027685  0.67270515  0.35119030    -0.70700
O87         O  0.56789796  0.68019230  0.38404202    -0.70300
O88         O  0.61387925  0.79219721  0.43153889    -0.61500
O89         O  0.56884876  0.78717892  0.37829763    -0.74000
O90         O  0.61343984  0.68655728  0.43692681    -0.72800
Cu91       Cu  0.63494589  0.72931871  0.37359284     1.04600
Cu92       Cu  0.58954671  0.73669163  0.40877323     1.04300
C93         C  0.64223198  0.66816387  0.43064122     0.93500
C94         C  0.58248008  0.79843595  0.35213100     0.92600
C95         C  0.64226896  0.80694120  0.42249616     0.84800
C96         C  0.58143317  0.65906878  0.36003158     0.91100
O97         O  0.35706876  0.69106520  0.43095946    -0.72700
O98         O  0.40630477  0.78385164  0.37482215    -0.73700
O99         O  0.35828333  0.79657897  0.42238745    -0.62300
O100        O  0.40511169  0.67760967  0.38299403    -0.70700
O101        O  0.36500440  0.67379718  0.34503236    -0.70300
O102        O  0.31702062  0.79107064  0.38589833    -0.61500
O103        O  0.36551677  0.77978076  0.33766418    -0.74000
O104        O  0.31687142  0.68481837  0.39340516    -0.72800
Cu105      Cu  0.38311915  0.73745442  0.40403476     1.04600
Cu106      Cu  0.33963197  0.73214408  0.36418638     1.04300
C107        C  0.32891994  0.67357113  0.42115093     0.93500
C108        C  0.39393069  0.79643789  0.34747839     0.92600
C109        C  0.32995690  0.81200391  0.41092735     0.84800
C110        C  0.39274279  0.65773367  0.35742382     0.91100
C111        C  0.24311279  0.94733284  0.99668057     0.86700
C112        C  0.23042429  0.99341550  0.46767160    -0.53500
C113        C  0.21046165  0.02352589  0.48611880     0.09700
C114        C  0.20428360  0.00662702  0.03041794     0.20600
C115        C  0.26199984  0.98587905  0.01831612    -0.54200
C116        C  0.24181089  0.01725202  0.03552480     0.09800
C117        C  0.22102990  0.91886465  0.01959632    -0.53800
C118        C  0.20074249  0.94952092  0.03711341     0.10300
H119        H  0.23029304  0.99562430  0.44177675     0.14900
H120        H  0.18788684  0.03176606  0.04473909     0.00600
H121        H  0.28881080  0.98981875  0.02026182     0.15200
H122        H  0.22155767  0.87779241  0.02200678     0.14900
O123        O  0.30292116  0.18040206  0.14090469    -0.72700
O124        O  0.36069528  0.27736068  0.19233283    -0.73700
O125        O  0.30650645  0.28835496  0.14638644    -0.62300
O126        O  0.35758956  0.17084896  0.18670102    -0.70700
O127        O  0.39307295  0.17152334  0.14685692    -0.70300
O128        O  0.34347012  0.28871645  0.10801226    -0.61500
O129        O  0.39704380  0.27838948  0.15334974    -0.74000
O130        O  0.33914506  0.18277627  0.10195026    -0.72800
Cu131      Cu  0.33058843  0.22916341  0.16798284     1.04600
Cu132      Cu  0.36939219  0.23038843  0.12624371     1.04300
C133        C  0.31182023  0.16662230  0.11302997     0.93500
C134        C  0.38809340  0.29282742  0.18106313     0.92600
C135        C  0.31703595  0.30676919  0.12039543     0.84800
C136        C  0.38358718  0.15329139  0.17315521     0.91100
C137        C  0.24588861  0.53764973  0.01270694     0.86700
C138        C  0.26732769  0.50066601  0.03302895    -0.53500
C139        C  0.25001250  0.47388777  0.05481537     0.09700
C140        C  0.21226837  0.48710407  0.05456881     0.20600
C141        C  0.22630741  0.51180506  0.49062673    -0.54200
C142        C  0.20103012  0.47674995  0.01965854     0.09800
C143        C  0.22803754  0.57135429  0.03678052    -0.53800
C144        C  0.21058025  0.54551194  0.05874632     0.10300
H145        H  0.29394766  0.49486119  0.02955528     0.14900
H146        H  0.19784305  0.46566846  0.07213520     0.00600
H147        H  0.22235844  0.50485415  0.46521377     0.15200
H148        H  0.22904929  0.61257467  0.03643860     0.14900
C149        C  0.46649171  0.99734796  0.23061627     0.02500
C150        C  0.50178580  0.99907248  0.23098275     0.02500
C151        C  0.52051782  0.96389424  0.24935677    -0.18000
C152        C  0.50469517  0.92844374  0.26818245     0.02500
C153        C  0.46933364  0.92638997  0.26747534     0.02500
C154        C  0.45067277  0.96046062  0.24830416    -0.18000
H155        H  0.42353934  0.96013668  0.24855076     0.04500
H156        H  0.54764714  0.96513480  0.24981052     0.04500
C157        C  0.46915927  0.43143978  0.25691742     0.02500
C158        C  0.50410818  0.43558702  0.25398840     0.02500
C159        C  0.52157107  0.47314936  0.27110903    -0.18000
C160        C  0.50477509  0.50741834  0.29097179     0.02500
C161        C  0.46961138  0.50400819  0.29344213     0.02500
C162        C  0.45231640  0.46546211  0.27691182    -0.18000
H163        H  0.42531665  0.46353486  0.27835867     0.04500
H164        H  0.54851461  0.47534223  0.26918727     0.04500
O165        O  0.84531266  0.21247238  0.43408555    -0.72700
O166        O  0.89416469  0.32316030  0.39273162    -0.73700
O167        O  0.84740283  0.31915611  0.44046746    -0.62300
O168        O  0.89236182  0.21614158  0.38614089    -0.70700
O169        O  0.85162487  0.22432969  0.34899497    -0.70300
O170        O  0.80594708  0.32666006  0.40427584    -0.61500
O171        O  0.85318552  0.33121250  0.35596106    -0.74000
O172        O  0.80382937  0.21853663  0.39783042    -0.72800
Cu173      Cu  0.87116808  0.26737297  0.41457729     1.04600
Cu174      Cu  0.82709108  0.27533484  0.37544315     1.04300
C175        C  0.81723768  0.19724805  0.42256360     0.93500
C176        C  0.88119500  0.34553706  0.36829661     0.92600
C177        C  0.81990311  0.33997452  0.43086204     0.84800
C178        C  0.87930979  0.20443121  0.35893712     0.91100
O179        O  0.81425726  0.71251722  0.14358095    -0.72700
O180        O  0.86265443  0.82712409  0.18518193    -0.73700
O181        O  0.81438527  0.81836042  0.13488239    -0.62300
O182        O  0.86301140  0.72213561  0.19403195    -0.70700
O183        O  0.90369402  0.71290421  0.15949917    -0.70300
O184        O  0.85480144  0.80912927  0.10012241    -0.61500
O185        O  0.90360719  0.81959473  0.15085206    -0.74000
O186        O  0.85461912  0.70271758  0.10886239    -0.72800
Cu187      Cu  0.83720417  0.77021500  0.16555336     1.04600
Cu188      Cu  0.88063572  0.76069942  0.12855490     1.04300
C189        C  0.82620722  0.68993469  0.11931344     0.93500
C190        C  0.89086115  0.84120656  0.17518584     0.92600
C191        C  0.82687923  0.82901423  0.10807671     0.84800
C192        C  0.89133746  0.70323138  0.18653625     0.91100
C193        C  0.27560699  0.37966698  0.12005140    -0.21100
C194        C  0.29871237  0.34875325  0.10391573    -0.09100
C195        C  0.30446159  0.35845917  0.07152673     0.29800
C196        C  0.28804596  0.39853632  0.05599280    -0.21100
C197        C  0.26574899  0.43042969  0.07220628    -0.09100
C198        C  0.25924487  0.42037305  0.10434446     0.29800
F199        F  0.23815172  0.45083551  0.12085059    -0.19600
H200        H  0.27073672  0.37298342  0.14496607     0.18100
H201        H  0.29275321  0.40444646  0.03095773     0.18100
F202        F  0.32567461  0.32889172  0.05450033    -0.19600
C203        C  0.41002898  0.32494548  0.23387999    -0.21100
C204        C  0.40956871  0.32747040  0.20032199    -0.09100
C205        C  0.42954760  0.36350994  0.18555674     0.29800
C206        C  0.44900394  0.39693122  0.20411178    -0.21100
C207        C  0.44938921  0.39442963  0.23760596    -0.09100
C208        C  0.42993853  0.35791294  0.25240677     0.29800
F209        F  0.43046610  0.35392718  0.28473946    -0.19600
H210        H  0.39518554  0.29707924  0.24575939     0.18100
H211        H  0.46337499  0.42546141  0.19232806     0.18100
F212        F  0.42932667  0.36776456  0.15324837    -0.19600
C213        C  0.40971926  0.06733068  0.17148303    -0.21100
C214        C  0.40360562  0.11262529  0.18826700    -0.09100
C215        C  0.41849342  0.12009597  0.21872394     0.29800
C216        C  0.43954563  0.08264478  0.23209648    -0.21100
C217        C  0.44542009  0.03719302  0.21544547    -0.09100
C218        C  0.43003199  0.02926897  0.18526624     0.29800
F219        F  0.43504114  0.98508616  0.16910078    -0.19600
H220        H  0.39850920  0.06138025  0.14787441     0.18100
H221        H  0.45118595  0.08887126  0.25549760     0.18100
F222        F  0.41354815  0.16423381  0.23497762    -0.19600
C223        C  0.29746390  0.12623937  0.06047262    -0.21100
C224        C  0.29080148  0.13182295  0.09307398    -0.09100
C225        C  0.26481404  0.10317905  0.10583064     0.29800
C226        C  0.24743131  0.06771186  0.08660506    -0.21100
C227        C  0.25588128  0.06005085  0.05463728    -0.09100
C228        C  0.28016453  0.09109909  0.04143253     0.29800
F229        F  0.28746372  0.08705753  0.01003474    -0.19600
H230        H  0.31654186  0.14867799  0.04964281     0.18100
H231        H  0.22840230  0.04480000  0.09705957     0.18100
F232        F  0.25710490  0.10777362  0.13707182    -0.19600
C233        C  0.31632195  0.64169536  0.47540251    -0.21100
C234        C  0.30992636  0.64080133  0.44224115    -0.09100
C235        C  0.28462918  0.60944284  0.42961692     0.29800
C236        C  0.26620874  0.57963238  0.44974504    -0.21100
C237        C  0.27245524  0.57980976  0.48309658    -0.09100
C238        C  0.29773415  0.61190141  0.49565605     0.29800
F239        F  0.30158005  0.59656129  0.03466654    -0.19600
H240        H  0.33542894  0.66619031  0.48579628     0.18100
H241        H  0.24676909  0.55710907  0.43825768     0.18100
F242        F  0.27778684  0.60707004  0.39766117    -0.19600
C243        C  0.27674021  0.85845523  0.42275936    -0.21100
C244        C  0.31148523  0.85268069  0.42773400    -0.09100
C245        C  0.32779233  0.88314286  0.45091099     0.29800
C246        C  0.30956843  0.91714831  0.46942751    -0.21100
C247        C  0.27448742  0.92218128  0.46539750    -0.09100
C248        C  0.25838362  0.89233785  0.44147133     0.29800
F249        F  0.22463314  0.89499261  0.43666464    -0.19600
H250        H  0.26346898  0.83524540  0.40516739     0.18100
H251        H  0.31367035  0.94076677  0.98993917     0.18100
F252        F  0.36145079  0.87958514  0.45621937    -0.19600
C253        C  0.40887416  0.82695198  0.29363551    -0.21100
C254        C  0.41294482  0.82999504  0.32703847    -0.09100
C255        C  0.43570875  0.86481310  0.34067318     0.29800
C256        C  0.45401296  0.89592687  0.32114420    -0.21100
C257        C  0.45089224  0.89163651  0.28781219    -0.09100
C258        C  0.42782102  0.85740469  0.27410055     0.29800
F259        F  0.42358091  0.85367516  0.24185767    -0.19600
H260        H  0.39140093  0.80045971  0.28265314     0.18100
H261        H  0.46997139  0.92434470  0.33213864     0.18100
F262        F  0.43949145  0.87001566  0.37287426    -0.19600
C263        C  0.43222767  0.53085325  0.33751299    -0.21100
C264        C  0.44987947  0.54322471  0.31020004    -0.09100
C265        C  0.44774285  0.59284622  0.29816228     0.29800
C266        C  0.42847763  0.62970298  0.31347635    -0.21100
C267        C  0.41154022  0.61767919  0.34116368    -0.09100
C268        C  0.41350161  0.56813462  0.35325722     0.29800
F269        F  0.39708732  0.55587682  0.37998433    -0.19600
H270        H  0.43341676  0.49256390  0.34681554     0.18100
H271        H  0.42707421  0.66787981  0.30397492     0.18100
F272        F  0.46391287  0.60532698  0.27133531    -0.19600
C273        C  0.55723283  0.81743818  0.29856743    -0.21100
C274        C  0.56493813  0.83327044  0.32999076    -0.09100
C275        C  0.55411389  0.88127326  0.34050767     0.29800
C276        C  0.53532312  0.91272179  0.31986110    -0.21100
C277        C  0.52581880  0.89562632  0.28912744    -0.09100
C278        C  0.53745965  0.84827825  0.27826351     0.29800
F279        F  0.52953779  0.83195243  0.24817654    -0.19600
H280        H  0.56557327  0.78049661  0.29017758     0.18100
H281        H  0.52746098  0.95000462  0.32806062     0.18100
F282        F  0.56194361  0.89773756  0.37060262    -0.19600
C283        C  0.54199980  0.58687067  0.35875026    -0.21100
C284        C  0.56308561  0.61914918  0.34231953    -0.09100
C285        C  0.56523470  0.61415817  0.30897790     0.29800
C286        C  0.54599612  0.57800786  0.29242745    -0.21100
C287        C  0.52465057  0.54603314  0.30885255    -0.09100
C288        C  0.52332437  0.55007895  0.34229345     0.29800
F289        F  0.50468229  0.51763104  0.35913946    -0.19600
H290        H  0.54033670  0.58971181  0.38449492     0.18100
H291        H  0.54745886  0.57526429  0.26666275     0.18100
F292        F  0.58492166  0.64538166  0.29227883    -0.19600
C293        C  0.52807763  0.34966015  0.24419110    -0.21100
C294        C  0.52306241  0.39985284  0.23405349    -0.09100
C295        C  0.53560714  0.41540862  0.20477600     0.29800
C296        C  0.55202399  0.38034286  0.18532682    -0.21100
C297        C  0.55699755  0.33013409  0.19550703    -0.09100
C298        C  0.54538061  0.31505502  0.22522342     0.29800
F299        F  0.55011730  0.26659763  0.23546133    -0.19600
H300        H  0.51857114  0.33744292  0.26681053     0.18100
H301        H  0.56126203  0.39242381  0.16256662     0.18100
F302        F  0.53131136  0.46409563  0.19482821    -0.19600
C303        C  0.55992197  0.10696517  0.21524694    -0.21100
C304        C  0.55456471  0.11435209  0.18231372    -0.09100
C305        C  0.53139960  0.08383903  0.16530475     0.29800
C306        C  0.51447792  0.04591275  0.18112729    -0.21100
C307        C  0.51969553  0.03897423  0.21412847    -0.09100
C308        C  0.54250785  0.06990380  0.23110600     0.29800
F309        F  0.54761294  0.06470968  0.26314849    -0.19600
H310        H  0.57730583  0.13047888  0.22889537     0.18100
H311        H  0.49759472  0.02158519  0.16755795     0.18100
F312        F  0.52574723  0.08969296  0.13337646    -0.19600
C313        C  0.69214853  0.87858494  0.48532734    -0.21100
C314        C  0.69045404  0.92798684  0.47290315    -0.09100
C315        C  0.67157008  0.93738183  0.44455629     0.29800
C316        C  0.65606519  0.89747074  0.42813050    -0.21100
C317        C  0.65876715  0.84807175  0.44000369    -0.09100
C318        C  0.67628471  0.83871067  0.46898380     0.29800
F319        F  0.67866533  0.79095160  0.48096294    -0.19600
H320        H  0.71075544  0.87974553  0.00248211     0.18100
H321        H  0.64184662  0.90506817  0.40616262     0.18100
F322        F  0.66792408  0.98517006  0.43287726    -0.19600
C323        C  0.70735241  0.07087961  0.07619031    -0.21100
C324        C  0.69562847  0.05967537  0.04514771    -0.09100
C325        C  0.66406569  0.07778251  0.03459406     0.29800
C326        C  0.64498365  0.10865589  0.05460071    -0.21100
C327        C  0.65734862  0.12232466  0.08529892    -0.09100
C328        C  0.68845437  0.10180515  0.09623257     0.29800
F329        F  0.70147120  0.11331529  0.12570308    -0.19600
H330        H  0.73200788  0.05784813  0.08429853     0.18100
H331        H  0.62112627  0.12345772  0.04555020     0.18100
F332        F  0.65261943  0.06790159  0.00433098    -0.19600
C333        C  0.76830242  0.93255851  0.07569475    -0.21100
C334        C  0.77763341  0.93438290  0.04376125    -0.09100
C335        C  0.80194826  0.90004157  0.03273698     0.29800
C336        C  0.81751698  0.86553297  0.05372336    -0.21100
C337        C  0.80906714  0.86454356  0.08603584    -0.09100
C338        C  0.78396849  0.89811170  0.09682165     0.29800
F339        F  0.77537290  0.89899866  0.12794105    -0.19600
H340        H  0.74965064  0.95895235  0.08449713     0.18100
H341        H  0.83628380  0.83959275  0.04464369     0.18100
F342        F  0.81044382  0.89963548  0.00157950    -0.19600
C343        C  0.81681711  0.08632898  0.96837167    -0.21100
C344        C  0.76882891  0.07607249  0.47131564    -0.09100
C345        C  0.75072187  0.10649053  0.44882456     0.29800
C346        C  0.76658102  0.14501503  0.43238074    -0.21100
C347        C  0.80069325  0.15455972  0.43822735    -0.09100
C348        C  0.81895639  0.12345900  0.45991614     0.29800
F349        F  0.86655373  0.13096334  0.95946858    -0.19600
H350        H  0.83200088  0.06219004  0.98376158     0.18100
H351        H  0.75193096  0.16824567  0.41572836     0.18100
F352        F  0.71737266  0.09982966  0.44333157    -0.19600
C353        C  0.65641779  0.41354908  0.06106786    -0.21100
C354        C  0.68944505  0.42587955  0.07059864    -0.09100
C355        C  0.70475545  0.39873121  0.09627892     0.29800
C356        C  0.68795311  0.35943084  0.11090853    -0.21100
C357        C  0.65563816  0.34592675  0.10020877    -0.07500
C358        C  0.63972678  0.37430214  0.07561688     0.29800
F359        F  0.60812877  0.36366534  0.06494912    -0.19600
H360        H  0.64332764  0.43204425  0.04139817     0.18100
H361        H  0.70071331  0.33858334  0.13001921     0.18100
F362        F  0.73666367  0.40866470  0.10633584    -0.19600
C363        C  0.66200611  0.59248544  0.50556274    -0.21100
C364        C  0.68996766  0.56371911  0.49658437    -0.09100
C365        C  0.70353330  0.57166566  0.46646612     0.29800
C366        C  0.68810336  0.60599856  0.44514956    -0.21100
C367        C  0.65925372  0.63338888  0.45368725    -0.09100
C368        C  0.64686774  0.62720166  0.48454993     0.29800
F369        F  0.62016109  0.65467293  0.49462898    -0.19600
H370        H  0.65174188  0.58794641  0.52903744     0.18100
H371        H  0.69844988  0.61046639  0.42170596     0.18100
F372        F  0.73082649  0.54503648  0.45706848    -0.19600
C373        C  0.82112992  0.61888381  0.07942980    -0.21100
C374        C  0.80654109  0.64963602  0.10294839    -0.09100
C375        C  0.77269715  0.64224958  0.11007702     0.29800
C376        C  0.75422346  0.60469673  0.09423151    -0.21100
C377        C  0.76890984  0.57369119  0.07102534    -0.09100
C378        C  0.80254323  0.58117103  0.06359834     0.29800
F379        F  0.81787277  0.55086089  0.04198737    -0.19600
H380        H  0.84709146  0.62362809  0.07349176     0.18100
H381        H  0.72819438  0.60008248  0.09999086     0.18100
F382        F  0.75711675  0.67166292  0.13201798    -0.19600
C383        C  0.75677857  0.43374496  0.46315106    -0.21100
C384        C  0.76979178  0.44094457  0.49426851    -0.09100
C385        C  0.80641875  0.40264134  0.00901704     0.29800
C386        C  0.82538839  0.37393393  0.98784272    -0.21100
C387        C  0.80402483  0.37877138  0.45120422    -0.09100
C388        C  0.77392743  0.40343439  0.44148502     0.29800
F389        F  0.76010551  0.39628328  0.41177131    -0.19600
H390        H  0.73223776  0.44876325  0.45631563     0.18100
H391        H  0.84111446  0.34324206  0.99712311     0.18100
F392        F  0.80842197  0.39170890  0.04068206    -0.19600
C393        C  0.15012873  0.90161103  0.05061158    -0.21100
C394        C  0.17881329  0.92779961  0.06092862    -0.09100
C395        C  0.18976323  0.92474884  0.09299336     0.29800
C396        C  0.17322185  0.89354065  0.11409867    -0.21100
C397        C  0.14547643  0.86489871  0.10351571    -0.09100
C398        C  0.13328615  0.87076950  0.07172609     0.29800
F399        F  0.10626092  0.84470868  0.06045565    -0.19600
H400        H  0.14171544  0.90323051  0.02576443     0.18100
H401        H  0.18291726  0.89042736  0.13847657     0.18100
F402        F  0.21788808  0.94896267  0.10329463    -0.19600
C403        C  0.19048428  0.64312136  0.12190278    -0.21100
C404        C  0.15530486  0.64415701  0.12006293    -0.09100
C405        C  0.13859444  0.60721931  0.10115938     0.29800
C406        C  0.15685847  0.57194763  0.08317996    -0.21100
C407        C  0.19190160  0.57347156  0.08342075    -0.09100
C408        C  0.20863645  0.60852721  0.10352095     0.29800
F409        F  0.24259215  0.61078408  0.10420295    -0.19600
H410        H  0.20401502  0.67086618  0.13630108     0.18100
H411        H  0.14360898  0.54547904  0.06759008     0.18100
F412        F  0.10463489  0.60598092  0.09938990    -0.19600
C413        C  0.04339144  0.68752327  0.25156192    -0.21100
C414        C  0.05926521  0.66545719  0.22536841    -0.09100
C415        C  0.05571866  0.61346319  0.21892010     0.29800
C416        C  0.03647152  0.58379884  0.23864707    -0.21100
C417        C  0.01963365  0.60619195  0.26417710    -0.09100
C418        C  0.02327654  0.65816366  0.27070713     0.29800
F419        F  0.00698114  0.68042707  0.29521080    -0.19600
H420        H  0.04562778  0.72780475  0.25643196     0.18100
H421        H  0.03366490  0.54370644  0.23338816     0.18100
F422        F  0.07043763  0.59173690  0.19332311    -0.19600
C423        C  0.91337185  0.44163670  0.31041862    -0.21100
C424        C  0.93490175  0.47004040  0.33059025    -0.09100
C425        C  0.93657059  0.45958186  0.36345321     0.29800
C426        C  0.91911742  0.41875902  0.37538873    -0.21100
C427        C  0.89860816  0.38907329  0.35503126    -0.09100
C428        C  0.89500806  0.40177797  0.32254915     0.29800
F429        F  0.87485440  0.37456426  0.30232003    -0.19600
H430        H  0.91153878  0.44943070  0.28503912     0.18100
H431        H  0.92138416  0.41064057  0.40071030     0.18100
F432        F  0.95498985  0.48883928  0.38399827    -0.19600
C433        C  0.95146741  0.60547508  0.22278728    -0.21100
C434        C  0.94564989  0.61190100  0.25545865    -0.09100
C435        C  0.92212968  0.64832176  0.26527211     0.29800
C436        C  0.90446934  0.67761068  0.24262679    -0.21100
C437        C  0.91018147  0.67132685  0.20986384    -0.09100
C438        C  0.93417164  0.63529493  0.20009249     0.29800
F439        F  0.94014191  0.62768428  0.16866184    -0.19600
H440        H  0.96889281  0.57656251  0.21482054     0.18100
H441        H  0.88648498  0.70560872  0.25077281     0.18100
F442        F  0.91628183  0.65545911  0.29677680    -0.19600
C443        C  0.00994147  0.90556362  0.24279886    -0.21100
C444        C  0.01734680  0.95650904  0.23657471    -0.09100
C445        C  0.04402184  0.96758574  0.21674132     0.29800
C446        C  0.06215702  0.92812157  0.20256146    -0.21100
C447        C  0.05357841  0.87748535  0.20771514    -0.09100
C448        C  0.02751107  0.86628176  0.22802551     0.29800
F449        F  0.01914321  0.81740899  0.23357121    -0.19600
H450        H  0.99002237  0.89626650  0.25864788     0.18100
H451        H  0.08238182  0.93701703  0.18695783     0.18100
F452        F  0.05168788  0.01641368  0.21020731    -0.19600
C453        C  0.91829590  0.93092070  0.24140246    -0.21100
C454        C  0.94291034  0.95920600  0.22675953    -0.09100
C455        C  0.95012994  0.94918660  0.19460274     0.29800
C456        C  0.93343635  0.91037180  0.17781884    -0.21100
C457        C  0.90876933  0.88206614  0.19262657    -0.09100
C458        C  0.90128174  0.89296622  0.22463050     0.29800
F459        F  0.87813179  0.86605625  0.24018366    -0.19600
H460        H  0.91261265  0.93771833  0.26622645     0.18100
H461        H  0.93945451  0.90292110  0.15315865     0.18100
F462        F  0.97303543  0.97708870  0.17943036    -0.19600
C463        C  0.90398375  0.11925820  0.34930376    -0.21100
C464        C  0.89703765  0.16866798  0.33858770    -0.09100
C465        C  0.90896370  0.18475533  0.30922120     0.29800
C466        C  0.92867205  0.15199645  0.29116040    -0.21100
C467        C  0.93588714  0.10277849  0.30200821    -0.09100
C468        C  0.92277852  0.08597412  0.33075341     0.29800
F469        F  0.92907935  0.03797303  0.34120681    -0.19600
H470        H  0.89485554  0.10661405  0.37199732     0.18100
H471        H  0.93858177  0.16502964  0.26889097     0.18100
F472        F  0.90271686  0.23277004  0.29880503    -0.19600
C473        C  0.18570971  0.36653933  0.46578364    -0.21100
C474        C  0.15110469  0.36471492  0.47022595    -0.09100
C475        C  0.13640316  0.39856799  0.49212111     0.29800
C476        C  0.15589953  0.43595089  0.50747525    -0.21100
C477        C  0.19001464  0.43954683  0.50113389    -0.09100
C478        C  0.20504893  0.40330845  0.48119872     0.29800
F479        F  0.23834669  0.40478559  0.47566982    -0.19600
H480        H  0.19772095  0.34024505  0.44958974     0.18100
H481        H  0.14408938  0.46365715  0.52287540     0.18100
F482        F  0.10298838  0.39781376  0.49698077    -0.19600
C483        C  0.18109695  0.13554906  0.43580966    -0.21100
C484        C  0.14974112  0.14703280  0.44851953    -0.09100
C485        C  0.13837961  0.11729685  0.47376695     0.29800
C486        C  0.15807057  0.07684849  0.48568573    -0.21100
C487        C  0.18931233  0.06543872  0.47275788    -0.09100
C488        C  0.20079964  0.09563436  0.44786096     0.29800
F489        F  0.23172090  0.08820866  0.43597037    -0.19600
H490        H  0.19083727  0.15811365  0.41676259     0.18100
H491        H  0.14876185  0.05420611  0.50490215     0.18100
F492        F  0.10833672  0.12705269  0.48694747    -0.19600
C493        C  0.02611905  0.37681278  0.34314633    -0.21100
C494        C  0.04321273  0.38737128  0.37208286    -0.09100
C495        C  0.04307874  0.43684961  0.38467552     0.29800
C496        C  0.02633384  0.47576813  0.36787950    -0.21100
C497        C  0.00900750  0.46506710  0.33896781    -0.09100
C498        C  0.00890079  0.41536050  0.32670343     0.29800
F499        F  0.99287959  0.40454157  0.29843886    -0.19600
H500        H  0.02642207  0.33871264  0.33318165     0.18100
H501        H  0.02670660  0.51414662  0.37737056     0.18100
F502        F  0.05985752  0.44760691  0.41256277    -0.19600
C503        C  0.04717935  0.17717655  0.31775611    -0.21100
C504        C  0.04268302  0.17447349  0.35091226    -0.09100
C505        C  0.02099320  0.13786475  0.36266611     0.29800
C506        C  0.00510641  0.10373641  0.34168407    -0.21100
C507        C  0.00962568  0.10651490  0.30863221    -0.09100
C508        C  0.03064890  0.14370831  0.29674948     0.29800
F509        F  0.03503777  0.14773212  0.26483951    -0.19600
H510        H  0.06348105  0.20534801  0.30805345     0.18100
H511        H  0.98962402  0.07453797  0.35133385     0.18100
F512        F  0.01604607  0.13375753  0.39447441    -0.19600
O513        O  0.09812574  0.30438471  0.96113465    -0.72700
O514        O  0.04995726  0.21441194  0.89662747    -0.73700
O515        O  0.09568583  0.19686902  0.94922129    -0.62300
O516        O  0.05297567  0.32221759  0.90804466    -0.70700
O517        O  0.09614389  0.32553644  0.87616198    -0.70300
O518        O  0.13698151  0.20262496  0.91540145    -0.61500
O519        O  0.09196437  0.22038312  0.86358842    -0.74000
O520        O  0.14063518  0.30718820  0.92843235    -0.72800
Cu521      Cu  0.07255192  0.25926964  0.92994088     1.04600
Cu522      Cu  0.11778949  0.26415984  0.89488023     1.04300
C523        C  0.12732009  0.31992568  0.95475287     0.93500
C524        C  0.06335946  0.20276110  0.87013857     0.92600
C525        C  0.12340087  0.18008923  0.93842042     0.84800
C526        C  0.06830338  0.34361212  0.88543051     0.91100
C527        C  0.95990857  0.06694319  0.77737505     0.02500
C528        C  0.99536142  0.06758926  0.77993713     0.02500
C529        C  0.01382028  0.03234171  0.76214646    -0.18000
C530        C  0.99778097  0.99516073  0.74320773     0.02500
C531        C  0.96240024  0.99341900  0.74160795     0.02500
C532        C  0.94393720  0.02985788  0.75839406    -0.18000
H533        H  0.91679285  0.02916519  0.75678483     0.04500
H534        H  0.04094543  0.03206618  0.76435665     0.04500
C535        C  0.00816490  0.50776545  0.81245362     0.02500
C536        C  0.97317276  0.50383753  0.80613072     0.02500
C537        C  0.95736971  0.53677137  0.78421687    -0.18000
C538        C  0.97544157  0.57248267  0.76780398     0.02500
C539        C  0.01048483  0.57532303  0.77288556     0.02500
C540        C  0.02634489  0.54374402  0.79575705    -0.18000
H541        H  0.05326959  0.54548134  0.79952401     0.04500
H542        H  0.93071740  0.53364408  0.77900637     0.04500
O543        O  0.11450088  0.70897660  0.61444622    -0.72700
O544        O  0.06485924  0.82202974  0.65663890    -0.73700
O545        O  0.11042829  0.81589199  0.60624505    -0.62300
O546        O  0.06958094  0.71625561  0.66429141    -0.70700
O547        O  0.11132744  0.72610175  0.69995964    -0.70300
O548        O  0.15286028  0.82528737  0.64106381    -0.61500
O549        O  0.10731586  0.83233219  0.69164749    -0.74000
O550        O  0.15680395  0.71786312  0.64951121    -0.72800
Cu551      Cu  0.08843951  0.76556726  0.63417142     1.04600
Cu552      Cu  0.13367003  0.77582281  0.67173211     1.04300
C553        C  0.14316875  0.69467170  0.62561633     0.93500
C554        C  0.07799190  0.84429765  0.68100916     0.92600
C555        C  0.13820101  0.83649456  0.61437128     0.84800
C556        C  0.08376707  0.70541714  0.69118112     0.91100
C557        C  0.70252145  0.45374281  0.55605519     0.86700
C558        C  0.72365954  0.48795970  0.57849723    -0.53500
C559        C  0.74395353  0.52049818  0.56297962     0.09700
C560        C  0.74107085  0.51616499  0.52625727     0.20600
C561        C  0.68336957  0.49174285  0.53403052    -0.54200
C562        C  0.70360606  0.52418306  0.51843701     0.09800
C563        C  0.72758564  0.42760901  0.53427770    -0.53800
C564        C  0.74752493  0.45999634  0.51878260     0.10300
H565        H  0.72238838  0.48686966  0.60436609     0.14900
H566        H  0.76663317  0.54424808  0.00570550     0.00600
H567        H  0.65645519  0.49408188  0.53067631     0.15200
H568        H  0.72870233  0.38672690  0.53050991     0.14900
C569        C  0.75033519  0.03775081  0.49121535     0.86700
C570        C  0.77121520  0.00266336  0.51390722    -0.53500
C571        C  0.75252899  0.97009994  0.53110449     0.09700
C572        C  0.71465865  0.97594515  0.52463395     0.20600
C573        C  0.74038268  0.00614114  0.96232662    -0.54200
C574        C  0.72078138  0.97457249  0.97951584     0.09800
C575        C  0.72543041  0.06448928  0.51284573    -0.53800
C576        C  0.70690344  0.03248534  0.53024194     0.10300
H577        H  0.79822607  0.00150759  0.51601477     0.14900
H578        H  0.69925377  0.95005687  0.53877632     0.00600
H579        H  0.74151800  0.00469482  0.93646496     0.15200
H580        H  0.72276108  0.10556273  0.51445031     0.14900
O581        O  0.64321023  0.27288255  0.64376676    -0.72700
O582        O  0.59320256  0.16586328  0.68914002    -0.73700
O583        O  0.64039515  0.16544157  0.64017612    -0.62300
O584        O  0.59641500  0.27172959  0.69299951    -0.70700
O585        O  0.55470163  0.27839619  0.65670809    -0.70300
O586        O  0.59960305  0.17237047  0.60324322    -0.61500
O587        O  0.55230019  0.17111916  0.65194549    -0.74000
O588        O  0.60146859  0.27977602  0.60779010    -0.72800
Cu589      Cu  0.61980562  0.21875045  0.66772527     1.04600
Cu590      Cu  0.57556133  0.22559423  0.62859513     1.04300
C591        C  0.62999120  0.29392302  0.61889320     0.93500
C592        C  0.56480349  0.15194203  0.67763614     0.92600
C593        C  0.62712017  0.15193659  0.61336373     0.84800
C594        C  0.56856169  0.29126597  0.68340568     0.91100
O595        O  0.66120532  0.68485219  0.89667020    -0.72700
O596        O  0.60403383  0.78379167  0.84624625    -0.73700
O597        O  0.65682602  0.79319615  0.89286684    -0.62300
O598        O  0.60785798  0.67770628  0.84985477    -0.70700
O599        O  0.57089391  0.67951028  0.88847687    -0.70300
O600        O  0.62079728  0.79279040  0.93223240    -0.61500
O601        O  0.56772978  0.78641869  0.88528861    -0.74000
O602        O  0.62355732  0.68532012  0.93468913    -0.72800
Cu603      Cu  0.63391225  0.73487049  0.87013010     1.04600
Cu604      Cu  0.59452038  0.73615538  0.91155496     1.04300
C605        C  0.65096501  0.66891383  0.92336422     0.93500
C606        C  0.57653967  0.79998872  0.85756510     0.92600
C607        C  0.64649477  0.81109389  0.91931331     0.84800
C608        C  0.58127594  0.66128024  0.86219390     0.91100
O609        O  0.35253789  0.68211465  0.94069488    -0.72700
O610        O  0.39932301  0.78465395  0.88806224    -0.73700
O611        O  0.35003265  0.78880665  0.93492180    -0.62300
O612        O  0.40247995  0.67725871  0.89380936    -0.70700
O613        O  0.36288599  0.67135852  0.85562364    -0.70300
O614        O  0.30970701  0.78161344  0.89752446    -0.61500
O615        O  0.35939368  0.77729680  0.85019254    -0.74000
O616        O  0.31325894  0.67505209  0.90237307    -0.72800
Cu617      Cu  0.37752765  0.73340236  0.91571109     1.04600
Cu618      Cu  0.33495283  0.72608525  0.87511744     1.04300
C619        C  0.32516676  0.66286450  0.92995771     0.93500
C620        C  0.38667493  0.79681145  0.86070278     0.92600
C621        C  0.32151835  0.80249988  0.92304055     0.84800
C622        C  0.39111888  0.65709360  0.86790528     0.91100
C623        C  0.25356352  0.95683464  0.48671624     0.86700
C624        C  0.21865514  0.98019150  0.97653751    -0.53500
C625        C  0.19859005  0.01166520  0.99397122     0.09700
C626        C  0.21517492  0.01379927  0.52225176     0.20600
C627        C  0.27272573  0.99195758  0.51043587    -0.54200
C628        C  0.25271290  0.02221061  0.52857996     0.09800
C629        C  0.23016155  0.92685143  0.50759838    -0.53800
C630        C  0.21027642  0.95636383  0.52620451     0.10300
H631        H  0.21814748  0.97977017  0.95057507     0.14900
H632        H  0.19900263  0.03784732  0.53746177     0.00600
H633        H  0.29966155  0.99537222  0.51235326     0.15200
H634        H  0.22996560  0.88560162  0.50827280     0.14900
O635        O  0.30301195  0.19026536  0.63602235    -0.72700
O636        O  0.35763694  0.28523515  0.69211495    -0.73700
O637        O  0.30822015  0.29807471  0.64171111    -0.62300
O638        O  0.35211482  0.17890704  0.68618736    -0.70700
O639        O  0.39196054  0.17782815  0.65044329    -0.70300
O640        O  0.34858561  0.29680549  0.60661218    -0.61500
O641        O  0.39751509  0.28415161  0.65644379    -0.74000
O642        O  0.34331862  0.19056060  0.60084572    -0.72800
Cu643      Cu  0.32876218  0.23822792  0.66524169     1.04600
Cu644      Cu  0.37165971  0.23735870  0.62736686     1.04300
C645        C  0.31486597  0.17506445  0.60953229     0.93500
C646        C  0.38644354  0.29913543  0.68325290     0.92600
C647        C  0.32145719  0.31617128  0.61687775     0.84800
C648        C  0.37916368  0.15989593  0.67548579     0.91100
C649        C  0.25258645  0.54758815  0.50579087     0.86700
C650        C  0.27488191  0.51227544  0.52667885    -0.53500
C651        C  0.25788996  0.48391844  0.54809763     0.09700
C652        C  0.21977232  0.49451560  0.54696511     0.20600
C653        C  0.21815660  0.50390629  0.99791803    -0.54200
C654        C  0.20957942  0.48381831  0.51199734     0.09800
C655        C  0.23319874  0.57986182  0.52949345    -0.53800
C656        C  0.21627832  0.55249581  0.55106192     0.10300
H657        H  0.30178375  0.50922698  0.52399524     0.14900
H658        H  0.20524358  0.47214688  0.56392825     0.00600
H659        H  0.21435660  0.49666748  0.97261295     0.15200
H660        H  0.23291152  0.62115527  0.52934635     0.14900
C661        C  0.45448562  0.00453553  0.74363380     0.02500
C662        C  0.48984045  0.00314391  0.74289508     0.02500
C663        C  0.50799378  0.96722353  0.76098606    -0.18000
C664        C  0.49177699  0.93336217  0.78073837     0.02500
C665        C  0.45642606  0.93532611  0.78198124     0.02500
C666        C  0.43820448  0.97034246  0.76318117    -0.18000
H667        H  0.41109883  0.97113398  0.76393712     0.04500
H668        H  0.53512965  0.96700138  0.76064350     0.04500
C669        C  0.46641977  0.43264746  0.76442177     0.02500
C670        C  0.50174986  0.43403949  0.76349298     0.02500
C671        C  0.51954125  0.47044209  0.78130746    -0.18000
C672        C  0.50275041  0.50646198  0.79974542     0.02500
C673        C  0.46748268  0.50551850  0.80079491     0.02500
C674        C  0.44974476  0.46819221  0.78347196    -0.18000
H675        H  0.42263245  0.46801094  0.78394849     0.04500
H676        H  0.54661075  0.47142920  0.78024230     0.04500
O677        O  0.86071004  0.21720780  0.93086821    -0.72700
O678        O  0.91009666  0.32732190  0.88924278    -0.73700
O679        O  0.86518069  0.32364214  0.94032140    -0.62300
O680        O  0.90506466  0.22208602  0.88030974    -0.70700
O681        O  0.86225545  0.23436810  0.84582393    -0.70300
O682        O  0.82236506  0.33561181  0.90596864    -0.61500
O683        O  0.86679539  0.34046224  0.85541448    -0.74000
O684        O  0.81763876  0.22850845  0.89682074    -0.72800
Cu685      Cu  0.88671257  0.27226812  0.91144641     1.04600
Cu686      Cu  0.84068426  0.28521550  0.87484636     1.04300
C687        C  0.83180111  0.20436291  0.92006333     0.93500
C688        C  0.89637758  0.35074813  0.86560106     0.92600
C689        C  0.83749577  0.34585305  0.93252150     0.84800
C690        C  0.88998481  0.21249638  0.85366629     0.91100
O691        O  0.81017889  0.70317982  0.64959923    -0.72700
O692        O  0.86080987  0.81991407  0.68816975    -0.73700
O693        O  0.80816617  0.81025413  0.64092259    -0.62300
O694        O  0.86337739  0.71444560  0.69648881    -0.70700
O695        O  0.90022284  0.70625125  0.65803150    -0.70300
O696        O  0.84614774  0.80233702  0.60371906    -0.61500
O697        O  0.89870548  0.81311964  0.65072462    -0.74000
O698        O  0.84745753  0.69566082  0.61172037    -0.72800
Cu699      Cu  0.83424493  0.76213441  0.67006452     1.04600
Cu700      Cu  0.87436150  0.75409450  0.62969569     1.04300
C701        C  0.82059528  0.68095959  0.62448203     0.93500
C702        C  0.88810177  0.83423435  0.67619181     0.92600
C703        C  0.81871363  0.82158566  0.61336047     0.84800
C704        C  0.89079415  0.69616311  0.68607057     0.91100
C705        C  0.27872051  0.38683055  0.61318465    -0.21100
C706        C  0.30530842  0.35947431  0.59965639    -0.09100
C707        C  0.31611300  0.37373574  0.56935112     0.29800
C708        C  0.30060068  0.41407604  0.55311500    -0.21100
C709        C  0.27426379  0.44188805  0.56665628    -0.09100
C710        C  0.26339867  0.42780306  0.59698948     0.29800
F711        F  0.23868160  0.45421448  0.61149738    -0.19600
H712        H  0.26995504  0.37686055  0.63651647     0.18100
H713        H  0.30894423  0.42275161  0.52943929     0.18100
F714        F  0.34128038  0.34821490  0.55488547    -0.19600
C715        C  0.40240497  0.33448229  0.73723333    -0.21100
C716        C  0.40720040  0.33262075  0.70410230    -0.09100
C717        C  0.43199763  0.36308846  0.69116545     0.29800
C718        C  0.45060889  0.39587355  0.71083205    -0.21100
C719        C  0.44631335  0.39719774  0.74398235    -0.09100
C720        C  0.42199666  0.36605490  0.75709237     0.29800
F721        F  0.41737334  0.36590571  0.78908464    -0.19600
H722        H  0.38375014  0.31093617  0.74784638     0.18100
H723        H  0.46814413  0.42092692  0.69995046     0.18100
F724        F  0.43768248  0.36242548  0.65935831    -0.19600
C725        C  0.41867496  0.08597790  0.67613781    -0.21100
C726        C  0.39639414  0.11776775  0.69249100    -0.09100
C727        C  0.39195232  0.11008898  0.72530837     0.29800
C728        C  0.41098328  0.07320622  0.74166881    -0.21100
C729        C  0.43402084  0.04250302  0.72550679    -0.09100
C730        C  0.43675795  0.04786754  0.69231082     0.29800
F731        F  0.45611547  0.01546875  0.67534810    -0.19600
H732        H  0.42183514  0.09027478  0.65069524     0.18100
H733        H  0.40807513  0.06903978  0.76715878     0.18100
F734        F  0.37015224  0.13928993  0.74187407    -0.19600
C735        C  0.30682816  0.13106548  0.55722007    -0.21100
C736        C  0.29633395  0.13875454  0.58860622    -0.09100
C737        C  0.26944516  0.11007912  0.59950133     0.29800
C738        C  0.25456698  0.07303803  0.57963257    -0.21100
C739        C  0.26643993  0.06383833  0.54888664    -0.09100
C740        C  0.29201247  0.09442000  0.53751550     0.29800
F741        F  0.30251074  0.08940941  0.50709901    -0.19600
H742        H  0.32685169  0.15329775  0.54781951     0.18100
H743        H  0.23446274  0.05058255  0.58862399     0.18100
F744        F  0.25829027  0.11645383  0.62957876    -0.19600
C745        C  0.31364734  0.62546950  0.98296904    -0.21100
C746        C  0.30639623  0.62788322  0.95001632    -0.09100
C747        C  0.27968304  0.59932736  0.93704586     0.29800
C748        C  0.26023241  0.57004137  0.95681119    -0.21100
C749        C  0.26696928  0.56817998  0.99006742    -0.09100
C750        C  0.29412523  0.59644031  0.00278668     0.29800
F751        F  0.30427412  0.61479491  0.52765503    -0.19600
H752        H  0.33390914  0.64729826  0.99367190     0.18100
H753        H  0.23965682  0.55020227  0.94550902     0.18100
F754        F  0.27199236  0.59988014  0.90521146    -0.19600
C755        C  0.26680145  0.84096437  0.93815729    -0.21100
C756        C  0.30189495  0.84185570  0.93958037    -0.09100
C757        C  0.31806615  0.87899278  0.95834574     0.29800
C758        C  0.29952913  0.91347173  0.97624995    -0.21100
C759        C  0.26420999  0.91167117  0.97617487    -0.09100
C760        C  0.24812257  0.87527205  0.95627767     0.29800
F761        F  0.21420382  0.87229165  0.95475183    -0.19600
H762        H  0.25380600  0.81263954  0.92377892     0.18100
H763        H  0.32369206  0.93781394  0.48750313     0.18100
F764        F  0.35198046  0.88235715  0.95928654    -0.19600
C765        C  0.40814685  0.82169153  0.80822432    -0.21100
C766        C  0.40383702  0.83302549  0.84066772    -0.09100
C767        C  0.41556387  0.87914698  0.85340794     0.29800
C768        C  0.43133943  0.91345698  0.83375573    -0.21100
C769        C  0.43768414  0.90051941  0.80193412    -0.09100
C770        C  0.42534517  0.85498590  0.78900003     0.29800
F771        F  0.42983527  0.84300441  0.75781783    -0.19600
H772        H  0.39884626  0.78649671  0.79800478     0.18100
H773        H  0.43933404  0.94966674  0.84352808     0.18100
F774        F  0.41110582  0.89141248  0.88455778    -0.19600
C775        C  0.45330039  0.55079760  0.85143213    -0.21100
C776        C  0.44837151  0.54450376  0.81831207    -0.09100
C777        C  0.42459350  0.57500321  0.80183317     0.29800
C778        C  0.40594123  0.61113281  0.81828799    -0.21100
C779        C  0.41089538  0.61787744  0.85139264    -0.09100
C780        C  0.43488860  0.58748443  0.86792638     0.29800
F781        F  0.43996779  0.59228099  0.90002175    -0.19600
H782        H  0.47115240  0.52691901  0.86453003     0.18100
H783        H  0.38791999  0.63446399  0.80497414     0.18100
F784        F  0.41979719  0.57032389  0.76969274    -0.19600
C785        C  0.55698970  0.83393390  0.80467125    -0.21100
C786        C  0.55456709  0.83382424  0.83810381    -0.09100
C787        C  0.53098421  0.86602897  0.85245482     0.29800
C788        C  0.51117376  0.89886668  0.83371888    -0.21100
C789        C  0.51266722  0.89776570  0.80030328    -0.09100
C790        C  0.53600549  0.86521738  0.78585555     0.29800
F791        F  0.53865298  0.86397424  0.75359161    -0.19600
H792        H  0.57485164  0.80925267  0.79302367     0.18100
H793        H  0.49536081  0.92619645  0.84553748     0.18100
F794        F  0.52772957  0.86705400  0.88463629    -0.19600
C795        C  0.55956866  0.57354937  0.85976092    -0.21100
C796        C  0.56193098  0.62151657  0.84579822    -0.09100
C797        C  0.54462971  0.63181191  0.81678680     0.29800
C798        C  0.52482191  0.59441728  0.80212135    -0.21100
C799        C  0.52264286  0.54629899  0.81599396    -0.09100
C800        C  0.54044647  0.53578063  0.84468623     0.29800
F801        F  0.53898934  0.48917741  0.85818092    -0.19600
H802        H  0.57279287  0.56531405  0.88216796     0.18100
H803        H  0.51134418  0.60275096  0.77986344     0.18100
F804        F  0.54632062  0.67829353  0.80312078    -0.19600
C805        C  0.52327911  0.34710727  0.75269476    -0.21100
C806        C  0.52062209  0.39815834  0.74376955    -0.09100
C807        C  0.53451741  0.41437885  0.71523057     0.29800
C808        C  0.54961468  0.37909324  0.69505939    -0.21100
C809        C  0.55203294  0.32800140  0.70393771    -0.09100
C810        C  0.53937745  0.31220241  0.73306322     0.29800
F811        F  0.54202938  0.26287631  0.74209093    -0.19600
H812        H  0.51269831  0.33442376  0.77474241     0.18100
H813        H  0.55967400  0.39157357  0.67272723     0.18100
F814        F  0.53211291  0.46383378  0.70637173    -0.19600
C815        C  0.53230133  0.12565231  0.72381840    -0.21100
C816        C  0.54608736  0.11368810  0.69430346    -0.09100
C817        C  0.54165955  0.06530008  0.68080744     0.29800
C818        C  0.52378671  0.02890450  0.69702273    -0.21100
C819        C  0.50884007  0.04146527  0.72595036    -0.09100
C820        C  0.51341772  0.08986323  0.73947957     0.29800
F821        F  0.50007938  0.10200875  0.76801471    -0.19600
H822        H  0.53581267  0.16287034  0.73445909     0.18100
H823        H  0.52099969  0.99123455  0.68678860     0.18100
F824        F  0.55504157  0.05322027  0.65227701    -0.19600
C825        C  0.69785097  0.88652542  0.97974568    -0.21100
C826        C  0.70006867  0.93375260  0.96448891    -0.09100
C827        C  0.68346280  0.94055358  0.93455592     0.29800
C828        C  0.66622775  0.90030435  0.91986298    -0.21100
C829        C  0.66441784  0.85324598  0.93509541    -0.09100
C830        C  0.67991051  0.84676411  0.96535547     0.29800
F831        F  0.67870360  0.80138087  0.98043811    -0.19600
H832        H  0.70667944  0.87056360  0.50704348     0.18100
H833        H  0.65386148  0.90604406  0.89672836     0.18100
F834        F  0.68324164  0.98625723  0.91975098    -0.19600
C835        C  0.69062445  0.05455860  0.58521291    -0.21100
C836        C  0.68233200  0.05259159  0.55251550    -0.09100
C837        C  0.65382692  0.07862422  0.54057807     0.29800
C838        C  0.63480007  0.10864632  0.56094408    -0.21100
C839        C  0.64432864  0.11381836  0.59340053    -0.09100
C840        C  0.67185160  0.08505115  0.60564157     0.29800
F841        F  0.68155860  0.08796935  0.63697284    -0.19600
H842        H  0.71289868  0.03513663  0.59452935     0.18100
H843        H  0.61369658  0.13003763  0.55088403     0.18100
F844        F  0.64563222  0.07734089  0.50885713    -0.19600
C845        C  0.75560261  0.92079061  0.58218323    -0.21100
C846        C  0.76788569  0.93006610  0.55174697    -0.09100
C847        C  0.79518451  0.90107656  0.54109559     0.29800
C848        C  0.81092761  0.86548706  0.56113314    -0.21100
C849        C  0.79976944  0.85749630  0.59219409    -0.09100
C850        C  0.77140167  0.88488522  0.60237985     0.29800
F851        F  0.75932562  0.87792261  0.63195495    -0.19600
H852        H  0.73431548  0.94229942  0.59064999     0.18100
H853        H  0.83215456  0.84432066  0.55221890     0.18100
F854        F  0.80641382  0.90650308  0.51104458    -0.19600
C855        C  0.80325983  0.08498302  0.47616121    -0.21100
C856        C  0.78202930  0.07980447  0.96383890    -0.09100
C857        C  0.76427828  0.11360147  0.94319371     0.29800
C858        C  0.78061118  0.15344890  0.92864722    -0.21100
C859        C  0.81496028  0.16087809  0.93441005    -0.09100
C860        C  0.83304903  0.12626788  0.95396584     0.29800
F861        F  0.85221653  0.13022770  0.46581035    -0.19600
H862        H  0.81856002  0.06393250  0.49314158     0.18100
H863        H  0.76610548  0.17933553  0.91351711     0.18100
F864        F  0.73068875  0.10937490  0.93812636    -0.19600
C865        C  0.64774285  0.40760624  0.56736742    -0.21100
C866        C  0.68233143  0.41432304  0.57340587    -0.09100
C867        C  0.69926506  0.38031205  0.59446817     0.29800
C868        C  0.68207765  0.34167054  0.60926258    -0.21100
C869        C  0.64771863  0.33515345  0.60305653    -0.07500
C870        C  0.63067516  0.36850400  0.58186279     0.29800
F871        F  0.59738222  0.36372543  0.57515114    -0.19600
H872        H  0.63338880  0.43120066  0.55095382     0.18100
H873        H  0.69590115  0.31619296  0.62520790     0.18100
F874        F  0.73281543  0.38365573  0.60017457    -0.19600
C875        C  0.71161635  0.60899401  0.98294527    -0.21100
C876        C  0.70032355  0.55871169  0.98295330    -0.09100
C877        C  0.67509102  0.54401374  0.96064487     0.29800
C878        C  0.66008130  0.57992053  0.94018208    -0.21100
C879        C  0.67033481  0.63054496  0.94135821    -0.09100
C880        C  0.69666132  0.64481642  0.96230986     0.29800
F881        F  0.70662393  0.69386347  0.96394390    -0.19600
H882        H  0.73085233  0.62120376  0.00004433     0.18100
H883        H  0.63978594  0.56854939  0.92396700     0.18100
F884        F  0.66463345  0.49519403  0.95895091    -0.19600
C885        C  0.81554149  0.60806469  0.58586653    -0.21100
C886        C  0.80133536  0.63836184  0.60987282    -0.09100
C887        C  0.76847784  0.62800601  0.61910922     0.29800
C888        C  0.75035972  0.58886933  0.60427279    -0.21100
C889        C  0.76439806  0.55944581  0.57989032    -0.09100
C890        C  0.79730859  0.56900368  0.57099840     0.29800
F891        F  0.81206980  0.54007081  0.54832113    -0.19600
H892        H  0.84085454  0.61463885  0.57849141     0.18100
H893        H  0.72487016  0.58250992  0.61123171     0.18100
F894        F  0.75333539  0.65651457  0.64176805    -0.19600
C895        C  0.78319763  0.45195355  0.96470120    -0.21100
C896        C  0.78438728  0.44077459  0.99738824    -0.09100
C897        C  0.80094742  0.41983783  0.50326756     0.29800
C898        C  0.81804109  0.38914283  0.48179465    -0.21100
C899        C  0.82206818  0.38215724  0.95480209    -0.09100
C900        C  0.80165807  0.42256459  0.94341690     0.29800
F901        F  0.79875578  0.43262244  0.91167613    -0.19600
H902        H  0.76627342  0.48118266  0.95540021     0.18100
H903        H  0.84140185  0.37136008  0.48979538     0.18100
F904        F  0.81352485  0.42572410  0.53355426    -0.19600
C905        C  0.15918718  0.90920798  0.53964109    -0.21100
C906        C  0.18863069  0.93351381  0.54982828    -0.09100
C907        C  0.19994696  0.92920841  0.58172778     0.29800
C908        C  0.18274631  0.89901792  0.60288547    -0.21100
C909        C  0.15393441  0.87266301  0.59255255    -0.09100
C910        C  0.14167644  0.87938036  0.56083302     0.29800
F911        F  0.11371662  0.85541724  0.54976825    -0.19600
H912        H  0.15044876  0.91190937  0.51492862     0.18100
H913        H  0.19266981  0.89499653  0.62713097     0.18100
F914        F  0.22885735  0.95146142  0.59184852    -0.19600
C915        C  0.19546684  0.64475860  0.61609353    -0.21100
C916        C  0.16087335  0.65166207  0.61036493    -0.09100
C917        C  0.14399308  0.61876224  0.58870926     0.29800
C918        C  0.16195022  0.58242158  0.57148357    -0.21100
C919        C  0.19677145  0.57862624  0.57551478    -0.09100
C920        C  0.21335201  0.60882162  0.59860300     0.29800
F921        F  0.24717130  0.60574781  0.60266837    -0.19600
H922        H  0.20903888  0.66907341  0.63281234     0.18100
H923        H  0.14900482  0.55966654  0.55344540     0.18100
F924        F  0.11040102  0.62292476  0.58319235    -0.19600
C925        C  0.07230749  0.67279180  0.74557512    -0.21100
C926        C  0.06759484  0.66929254  0.71222666    -0.09100
C927        C  0.04594837  0.63243095  0.69915799     0.29800
C928        C  0.02838087  0.60116622  0.71914985    -0.21100
C929        C  0.03117253  0.60700108  0.75243602    -0.09100
C930        C  0.05411592  0.64194697  0.76563665     0.29800
F931        F  0.05815806  0.64729483  0.79779978    -0.19600
H932        H  0.08911289  0.70063972  0.75610834     0.18100
H933        H  0.01238515  0.57239141  0.70855984     0.18100
F934        F  0.04181267  0.62639678  0.66703375    -0.19600
C935        C  0.96326830  0.41312309  0.81983040    -0.21100
C936        C  0.95258189  0.46415699  0.82043507    -0.09100
C937        C  0.92189134  0.47689984  0.83435137     0.29800
C938        C  0.90301554  0.43932240  0.84824752    -0.21100
C939        C  0.91520889  0.38934318  0.84958540    -0.09100
C940        C  0.94555508  0.37636133  0.83561159     0.29800
F941        F  0.95788504  0.32812264  0.83703586    -0.19600
H942        H  0.98581881  0.40185639  0.80784600     0.18100
H943        H  0.87948111  0.44946785  0.85895193     0.18100
F944        F  0.91050222  0.52569888  0.83512287    -0.19600
C945        C  0.94446867  0.58686246  0.71616839    -0.21100
C946        C  0.95630923  0.60604315  0.74569783    -0.09100
C947        C  0.94611890  0.65462556  0.75574334     0.29800
C948        C  0.92398296  0.68344442  0.73648159    -0.21100
C949        C  0.91249189  0.66445394  0.70678223    -0.09100
C950        C  0.92326428  0.61631590  0.69644637     0.29800
F951        F  0.91240313  0.59726403  0.66779283    -0.19600
H952        H  0.95151127  0.54887090  0.70858431     0.18100
H953        H  0.91612692  0.72084516  0.74450659     0.18100
F954        F  0.95676033  0.67334039  0.78455326    -0.19600
C955        C  0.01623699  0.90520987  0.73556818    -0.21100
C956        C  0.01868844  0.95655189  0.72729626    -0.09100
C957        C  0.04156519  0.97094602  0.70428879     0.29800
C958        C  0.06136858  0.93417800  0.68945129    -0.21100
C959        C  0.05850633  0.88297446  0.69752127    -0.09100
C960        C  0.03592002  0.86850322  0.72063488     0.29800
F961        F  0.03291074  0.81890487  0.72861229    -0.19600
H962        H  0.99905801  0.89366927  0.75358532     0.18100
H963        H  0.07861927  0.94547866  0.67142913     0.18100
F964        F  0.04412546  0.02033509  0.69572518    -0.19600
C965        C  0.92364944  0.92025679  0.74137872    -0.21100
C966        C  0.94394600  0.95260761  0.72418934    -0.09100
C967        C  0.94618830  0.94563968  0.69096528     0.29800
C968        C  0.92833362  0.90669776  0.67535196    -0.21100
C969        C  0.90763250  0.87472621  0.69257116    -0.09100
C970        C  0.90574029  0.88164494  0.72587368     0.29800
F971        F  0.88723543  0.85026281  0.74366458    -0.19600
H972        H  0.92195338  0.92469108  0.76703934     0.18100
H973        H  0.93016928  0.90215383  0.64972348     0.18100
F974        F  0.96500561  0.97712928  0.67359167    -0.19600
C975        C  0.89861327  0.12411551  0.83502362    -0.21100
C976        C  0.90502011  0.17593126  0.83184591    -0.09100
C977        C  0.92757601  0.19219541  0.80921301     0.29800
C978        C  0.94443605  0.15661222  0.79058059    -0.21100
C979        C  0.93911743  0.10446621  0.79454100    -0.09100
C980        C  0.91542875  0.08842018  0.81636441     0.29800
F981        F  0.90988465  0.03824440  0.82078670    -0.19600
H982        H  0.88126047  0.11131527  0.85256490     0.18100
H983        H  0.96238611  0.16958271  0.77365565     0.18100
F984        F  0.93391678  0.24230776  0.80579593    -0.19600
C985        C  0.18099987  0.35625530  0.97476728    -0.21100
C986        C  0.14609586  0.35392519  0.97704894    -0.09100
C987        C  0.12992154  0.38760536  0.99815836     0.29800
C988        C  0.14817165  0.42613973  0.01396913    -0.21100
C989        C  0.18256728  0.43088046  0.00910329    -0.09100
C990        C  0.19909349  0.39399482  0.99072947     0.29800
F991        F  0.23267218  0.39608147  0.98687720    -0.19600
H992        H  0.19424845  0.32995464  0.95949423     0.18100
H993        H  0.13519372  0.45387542  0.02845343     0.18100
F994        F  0.09632067  0.38566713  0.00175923    -0.19600
C995        C  0.17316122  0.12278936  0.94178038    -0.21100
C996        C  0.14097166  0.13508574  0.95234414    -0.09100
C997        C  0.12712930  0.10492547  0.97614432     0.29800
C998        C  0.14574205  0.06424500  0.98949114    -0.21100
C999        C  0.17802978  0.05273249  0.97895784    -0.09100
C1000       C  0.19150772  0.08242550  0.95487967     0.29800
F1001       F  0.22317265  0.07416995  0.94496055    -0.19600
H1002       H  0.18474289  0.14519677  0.92367286     0.18100
H1003       H  0.13495353  0.04166225  0.00797808     0.18100
F1004       F  0.09583979  0.11462691  0.98654600    -0.19600
C1005       C  0.06531758  0.39964950  0.83806461    -0.21100
C1006       C  0.05415453  0.38879109  0.86876029    -0.09100
C1007       C  0.02995930  0.42099947  0.88234019     0.29800
C1008       C  0.01673613  0.46238682  0.86493897    -0.21100
C1009       C  0.02671049  0.47119077  0.83351478    -0.09100
C1010       C  0.05170050  0.44004420  0.82054579     0.29800
F1011       F  0.06124906  0.44632693  0.78999180    -0.19600
H1012       H  0.08381845  0.37549517  0.82690891     0.18100
H1013       H  0.99747869  0.48607740  0.87530831     0.18100
F1014       F  0.01885458  0.41230797  0.91209595    -0.19600
C1015       C  0.05511926  0.16643098  0.81488398    -0.21100
C1016       C  0.04597512  0.16814000  0.84709193    -0.09100
C1017       C  0.02073742  0.13553452  0.85706936     0.29800
C1018       C  0.00501274  0.10246280  0.83527092    -0.21100
C1019       C  0.01343702  0.10182514  0.80293453    -0.09100
C1020       C  0.03896877  0.13377193  0.79296003     0.29800
F1021       F  0.04779477  0.13418851  0.76190789    -0.19600
H1022       H  0.07453285  0.19089495  0.80653513     0.18100
H1023       H  0.98606817  0.07721519  0.84368007     0.18100
F1024       F  0.01168742  0.13462916  0.88804297    -0.19600
loop_ 
_geom_bond_atom_site_label_1 
_geom_bond_atom_site_label_2 
_geom_bond_distance 
_geom_bond_site_symmetry_2 
_ccdc_geom_bond_type 
O1           Cu9   2.015       .  S
O1           C11   1.278       .  A
O2           Cu9   2.018       .  S
O2           C12   1.280       .  A
O3           Cu9   2.012       .  S
O3           C13   1.278       .  A
O4           Cu9   2.006       .  S
O4           C14   1.276       .  A
O5          Cu10   1.989       .  S
O5           C14   1.275       .  A
O6          Cu10   1.992       .  S
O6           C13   1.277       .  A
O7          Cu10   1.994       .  S
O7           C12   1.276       .  A
O8          Cu10   1.992       .  S
O8           C11   1.277       .  A
Cu9         Cu10   2.374       .  S
C11         C474   1.474       .  S
C12         C504   1.478       .  S
C13         C484   1.481       .  S
C14         C494   1.456       .  S
C15         C467   1.467       .  S
C15          C16   1.409       .  A
C15          C20   1.394       .  A
C16         C507   1.481   1_655  S
C16          C17   1.402   1_655  A
C17          C18   1.405   1_445  A
C17          H22   1.084       .  S
C18         C444   1.481   1_655  S
C18          C19   1.417       .  A
C19         C454   1.482       .  S
C19          C20   1.399   1_565  A
C20          H21   1.085       .  S
C23         C497   1.471   1_655  S
C23          C24   1.415       .  A
C23          C28   1.398   1_655  A
C24         C424   1.481       .  S
C24          C25   1.399       .  A
C25          C26   1.400       .  A
C25          H30   1.084       .  S
C26         C434   1.475       .  S
C26          C27   1.411       .  A
C27         C417   1.471   1_655  S
C27          C28   1.397   1_655  A
C28          H29   1.084       .  S
O31         Cu39   2.012       .  S
O31          C41   1.278       .  A
O32         Cu39   2.008       .  S
O32          C42   1.277       .  A
O33         Cu39   2.006       .  S
O33          C43   1.278       .  A
O34         Cu39   1.993       .  S
O34          C44   1.275       .  A
O35         Cu40   2.014       .  S
O35          C44   1.278       .  A
O36         Cu40   2.010       .  S
O36          C43   1.279       .  A
O37         Cu40   2.000       .  S
O37          C42   1.275       .  A
O38         Cu40   2.018       .  S
O38          C41   1.279       .  A
Cu39        Cu40   2.375       .  S
C41         C404   1.484       .  S
C42         C447   1.461       .  S
C43         C397   1.484       .  S
C44         C414   1.461       .  S
C45          C46   1.534       .  S
C45          C51   1.530       .  S
C45          C49   1.545       .  S
C45         C354   1.524       .  S
C46          H53   1.086       .  S
C46          C47   1.368       .  D
C47          C48   1.541       .  S
C47         C377   1.479       .  S
C48          C52   1.534       .  S
C48          C50   1.536       .  S
C48         H566   1.110       .  S
C49          H55   1.082       .  S
C49          C50   1.365       .  D
C50         C876   1.481   1_554  S
C51          H56   1.087       .  S
C51          C52   1.360       .  D
C52         C896   1.473   1_554  S
H54         C560   1.110       .  S
C57          C58   1.544   1_556  S
C57          C63   1.530   1_556  S
C57         C573   1.538       .  S
C57         C856   1.526       .  S
C58          H65   1.081       .  S
C58          C59   1.364   1_545  D
C59          C60   1.535       .  S
C59         C334   1.475       .  S
C60          C64   1.533   1_565  S
C60         C574   1.544   1_554  S
C60          H66   1.110       .  S
C61         C569   1.532       .  S
C61          H67   1.086   1_545  S
C61          C62   1.367   1_545  D
C62         C572   1.540       .  S
C62         C314   1.475       .  S
C63          H68   1.087       .  S
C63          C64   1.356       .  D
C64         C324   1.468       .  S
O69         Cu77   2.006       .  S
O69          C79   1.278       .  A
O70         Cu77   1.991       .  S
O70          C80   1.277       .  A
O71         Cu77   2.000       .  S
O71          C81   1.277       .  A
O72         Cu77   1.993       .  S
O72          C82   1.275       .  A
O73         Cu78   2.010       .  S
O73          C82   1.278       .  A
O74         Cu78   2.014       .  S
O74          C81   1.279       .  A
O75         Cu78   1.996       .  S
O75          C80   1.276       .  A
O76         Cu78   1.988       .  S
O76          C79   1.276       .  A
Cu77        Cu78   2.374       .  S
C79         C357   1.477       .  S
C80         C304   1.469       .  S
C81         C327   1.484       .  S
C82         C297   1.461       .  S
O83         Cu91   2.011       .  S
O83          C93   1.279       .  A
O84         Cu91   2.005       .  S
O84          C94   1.277       .  A
O85         Cu91   2.010       .  S
O85          C95   1.278       .  A
O86         Cu91   2.009       .  S
O86          C96   1.278       .  A
O87         Cu92   1.997       .  S
O87          C96   1.277       .  A
O88         Cu92   1.987       .  S
O88          C95   1.273       .  A
O89         Cu92   2.001       .  S
O89          C94   1.277       .  A
O90         Cu92   1.989       .  S
O90          C93   1.276       .  A
Cu91        Cu92   2.377       .  S
C93         C367   1.478       .  S
C94         C274   1.464       .  S
C95         C317   1.457       .  S
C96         C284   1.472       .  S
O97        Cu105   1.993       .  S
O97         C107   1.276       .  A
O98        Cu105   1.992       .  S
O98         C108   1.276       .  A
O99        Cu105   1.997       .  S
O99         C109   1.277       .  A
O100       Cu105   2.005       .  S
O100        C110   1.276       .  A
O101       Cu106   2.005       .  S
O101        C110   1.277       .  A
O102       Cu106   2.011       .  S
O102        C109   1.278       .  A
O103       Cu106   2.000       .  S
O103        C108   1.277       .  A
O104       Cu106   1.999       .  S
O104        C107   1.278       .  A
Cu105      Cu106   2.375       .  S
C107        C234   1.473       .  S
C108        C254   1.469       .  S
C109        C244   1.479       .  S
C110        C267   1.463       .  S
C111        C117   1.530   1_556  S
C111        C115   1.544   1_556  S
C111        C624   1.533       .  S
C111        C759   1.530       .  S
C112        C623   1.535       .  S
C112        H119   1.086       .  S
C112        C113   1.369   1_565  D
C113        C626   1.541       .  S
C113        C487   1.482       .  S
C114        C118   1.541   1_545  S
C114        C116   1.537       .  S
C114        C625   1.541   1_554  S
C114        H120   1.111       .  S
C115        H121   1.078       .  S
C115        C116   1.364   1_565  D
C116        C227   1.484       .  S
C117        H122   1.087       .  S
C117        C118   1.363       .  D
C118        C394   1.471       .  S
O123       Cu131   2.023       .  S
O123        C133   1.279       .  A
O124       Cu131   2.010       .  S
O124        C134   1.278       .  A
O125       Cu131   2.024       .  S
O125        C135   1.279       .  A
O126       Cu131   2.013       .  S
O126        C136   1.278       .  A
O127       Cu132   1.992       .  S
O127        C136   1.274       .  A
O128       Cu132   1.984       .  S
O128        C135   1.276       .  A
O129       Cu132   2.011       .  S
O129        C134   1.278       .  A
O130       Cu132   2.003       .  S
O130        C133   1.279       .  A
Cu131      Cu132   2.372       .  S
C133        C224   1.486       .  S
C134        C204   1.478       .  S
C135        C194   1.480       .  S
C136        C214   1.463       .  S
C137        C138   1.532       .  S
C137        C143   1.525       .  S
C137        C653   1.541   1_554  S
C137        C749   1.527   1_554  S
C138        H145   1.086       .  S
C138        C139   1.367       .  D
C139        C140   1.542       .  S
C139        C197   1.482       .  S
C140        C144   1.547       .  S
C140        C142   1.539       .  S
C140        H146   1.110       .  S
C141        C649   1.539       .  S
C141        H147   1.085       .  S
C141        C654   1.360       .  D
C142        C653   1.367   1_554  D
C142        C989   1.481       .  S
C143        H148   1.087       .  S
C143        C144   1.363       .  D
C144        C407   1.479       .  S
C149        C217   1.471   1_565  S
C149        C150   1.411       .  A
C149        C154   1.395       .  A
C150        C307   1.475   1_565  S
C150        C151   1.401       .  A
C151        C152   1.396       .  A
C151        H156   1.084       .  S
C152        C277   1.473       .  S
C152        C153   1.414       .  A
C153        C257   1.474       .  S
C153        C154   1.399       .  A
C154        H155   1.084       .  S
C157        C207   1.482       .  S
C157        C158   1.411       .  A
C157        C162   1.401       .  A
C158        C294   1.471       .  S
C158        C159   1.398       .  A
C159        C160   1.401       .  A
C159        H164   1.084       .  S
C160        C287   1.483       .  S
C160        C161   1.416       .  A
C161        C264   1.477       .  S
C161        C162   1.402       .  A
C162        H163   1.084       .  S
O165       Cu173   1.983       .  S
O165        C175   1.275       .  A
O166       Cu173   1.986       .  S
O166        C176   1.276       .  A
O167       Cu173   1.986       .  S
O167        C177   1.276       .  A
O168       Cu173   1.991       .  S
O168        C178   1.275       .  A
O169       Cu174   2.000       .  S
O169        C178   1.276       .  A
O170       Cu174   2.002       .  S
O170        C177   1.278       .  A
O171       Cu174   2.007       .  S
O171        C176   1.278       .  A
O172       Cu174   2.022       .  S
O172        C175   1.280       .  A
Cu173      Cu174   2.375       .  S
C175        C347   1.479       .  S
C176        C427   1.470       .  S
C177        C387   1.475       .  S
C178        C464   1.457       .  S
O179       Cu187   1.990       .  S
O179        C189   1.276       .  A
O180       Cu187   1.981       .  S
O180        C190   1.275       .  A
O181       Cu187   2.001       .  S
O181        C191   1.277       .  A
O182       Cu187   1.998       .  S
O182        C192   1.277       .  A
O183       Cu188   2.006       .  S
O183        C192   1.277       .  A
O184       Cu188   2.004       .  S
O184        C191   1.278       .  A
O185       Cu188   2.020       .  S
O185        C190   1.279       .  A
O186       Cu188   2.015       .  S
O186        C189   1.279       .  A
Cu187      Cu188   2.371       .  S
C189        C374   1.480       .  S
C190        C457   1.476       .  S
C191        C337   1.478       .  S
C192        C437   1.474       .  S
C193        C194   1.408       .  A
C193        C198   1.404       .  A
C193        H200   1.083       .  S
C194        C195   1.408       .  A
C195        C196   1.389       .  A
C195        F202   1.358       .  S
C196        C197   1.403       .  A
C196        H201   1.083       .  S
C197        C198   1.406       .  A
C198        F199   1.357       .  S
C203        C204   1.406       .  A
C203        C208   1.399       .  A
C203        H210   1.083       .  S
C204        C205   1.407       .  A
C205        C206   1.397       .  A
C205        F212   1.357       .  S
C206        C207   1.403       .  A
C206        H211   1.083       .  S
C207        C208   1.404       .  A
C208        F209   1.357       .  S
C213        C214   1.402       .  A
C213        C218   1.397       .  A
C213        H220   1.083       .  S
C214        C215   1.403       .  A
C215        C216   1.396       .  A
C215        F222   1.358       .  S
C216        C217   1.401       .  A
C216        H221   1.083       .  S
C217        C218   1.403       .  A
C218        F219   1.357   1_545  S
C223        C224   1.405       .  A
C223        C228   1.393       .  A
C223        H230   1.083       .  S
C224        C225   1.412       .  A
C225        C226   1.405       .  A
C225        F232   1.357       .  S
C226        C227   1.403       .  A
C226        H231   1.082       .  S
C227        C228   1.406       .  A
C228        F229   1.358       .  S
C233        C234   1.403       .  A
C233        C238   1.397       .  A
C233        H240   1.085       .  S
C234        C235   1.402       .  A
C235        C236   1.390       .  A
C235        F242   1.358       .  S
C236        C237   1.410       .  A
C236        H241   1.082       .  S
C237        C238   1.412       .  A
C237        C649   1.526       .  S
C238        F751   1.358       .  S
F239        C750   1.358       .  S
C243        C244   1.403       .  A
C243        C248   1.398       .  A
C243        H250   1.084       .  S
C244        C245   1.404       .  A
C245        C246   1.393       .  A
C245        F252   1.358       .  S
C246        C247   1.411       .  A
C246        H763   1.078       .  S
C247        C248   1.413       .  A
C247        C623   1.530       .  S
C248        F249   1.358       .  S
H251        C758   1.072       .  S
C253        C254   1.404       .  A
C253        C258   1.396       .  A
C253        H260   1.083       .  S
C254        C255   1.406       .  A
C255        C256   1.392       .  A
C255        F262   1.358       .  S
C256        C257   1.401       .  A
C256        H261   1.081       .  S
C257        C258   1.405       .  A
C258        F259   1.358       .  S
C263        C264   1.404       .  A
C263        C268   1.400       .  A
C263        H270   1.083       .  S
C264        C265   1.404       .  A
C265        C266   1.395       .  A
C265        F272   1.357       .  S
C266        C267   1.400       .  A
C266        H271   1.084       .  S
C267        C268   1.403       .  A
C268        F269   1.357       .  S
C273        C274   1.403       .  A
C273        C278   1.398       .  A
C273        H280   1.084       .  S
C274        C275   1.403       .  A
C275        C276   1.396       .  A
C275        F282   1.358       .  S
C276        C277   1.403       .  A
C276        H281   1.083       .  S
C277        C278   1.402       .  A
C278        F279   1.357       .  S
C283        C284   1.403       .  A
C283        C288   1.396       .  A
C283        H290   1.084       .  S
C284        C285   1.406       .  A
C285        C286   1.398       .  A
C285        F292   1.358       .  S
C286        C287   1.405       .  A
C286        H291   1.084       .  S
C287        C288   1.406       .  A
C288        F289   1.357       .  S
C293        C294   1.401       .  A
C293        C298   1.395       .  A
C293        H300   1.084       .  S
C294        C295   1.404       .  A
C295        C296   1.397       .  A
C295        F302   1.358       .  S
C296        C297   1.401       .  A
C296        H301   1.084       .  S
C297        C298   1.403       .  A
C298        F299   1.358       .  S
C303        C304   1.403       .  A
C303        C308   1.390       .  A
C303        H310   1.083       .  S
C304        C305   1.407       .  A
C305        C306   1.396       .  A
C305        F312   1.358       .  S
C306        C307   1.403       .  A
C306        H311   1.082       .  S
C307        C308   1.404       .  A
C308        F309   1.358       .  S
C313        C314   1.404       .  A
C313        C318   1.397       .  A
C313        H832   1.083       .  S
C314        C315   1.407       .  A
C315        C316   1.393       .  A
C315        F322   1.357       .  S
C316        C317   1.397       .  A
C316        H321   1.084       .  S
C317        C318   1.403       .  A
C318        F319   1.358       .  S
H320        C825   1.083   1_554  S
C323        C324   1.398       .  A
C323        C328   1.396       .  A
C323        H330   1.084       .  S
C324        C325   1.401       .  A
C325        C326   1.399       .  A
C325        F332   1.358       .  S
C326        C327   1.408       .  A
C326        H331   1.083       .  S
C327        C328   1.412       .  A
C328        F329   1.357       .  S
C333        C334   1.400       .  A
C333        C338   1.399       .  A
C333        H340   1.083       .  S
C334        C335   1.404       .  A
C335        C336   1.395       .  A
C335        F342   1.358       .  S
C336        C337   1.405       .  A
C336        H341   1.083       .  S
C337        C338   1.410       .  A
C338        F339   1.357       .  S
C343        C856   1.409       .  A
C343        C860   1.394       .  A
C343        H350   1.076       .  S
C344        C345   1.415       .  A
C344        C855   1.407       .  A
C344        C569   1.526       .  S
C345        C346   1.400       .  A
C345        F352   1.358       .  S
C346        C347   1.403       .  A
C346        H351   1.083       .  S
C347        C348   1.407       .  A
C348        C855   1.391       .  A
C348        F861   1.358       .  S
F349        C860   1.358       .  S
C353        C354   1.408       .  A
C353        C358   1.392       .  A
C353        H360   1.077       .  S
C354        C355   1.413       .  A
C355        C356   1.396       .  A
C355        F362   1.358       .  S
C356        C357   1.403       .  A
C356        H361   1.083       .  S
C357        C358   1.406       .  A
C358        F359   1.358       .  S
C363        C364   1.401       .  A
C363        C368   1.392       .  A
C363        H370   1.084       .  S
C364        C365   1.406       .  A
C364        C562   1.478       .  S
C365        C366   1.398       .  A
C365        F372   1.355       .  S
C366        C367   1.406       .  A
C366        H371   1.084       .  S
C367        C368   1.409       .  A
C368        F369   1.357       .  S
C373        C374   1.406       .  A
C373        C378   1.399       .  A
C373        H380   1.083       .  S
C374        C375   1.410       .  A
C375        C376   1.394       .  A
C375        F382   1.358       .  S
C376        C377   1.402       .  A
C376        H381   1.083       .  S
C377        C378   1.405       .  A
C378        F379   1.357       .  S
C383        C384   1.400       .  A
C383        C388   1.394       .  A
C383        H390   1.083       .  S
C384        C897   1.398       .  A
C384        C564   1.461       .  S
C385        C386   1.396   1_554  A
C385        C896   1.405   1_554  A
C385        F392   1.358       .  S
C386        C899   1.403       .  A
C386        H391   1.083       .  S
C387        C388   1.409       .  A
C387        C898   1.408       .  A
C388        F389   1.358       .  S
C393        C394   1.400       .  A
C393        C398   1.398       .  A
C393        H400   1.084       .  S
C394        C395   1.401       .  A
C395        C396   1.398       .  A
C395        F402   1.356       .  S
C396        C397   1.407       .  A
C396        H401   1.083       .  S
C397        C398   1.411       .  A
C398        F399   1.357       .  S
C403        C404   1.405       .  A
C403        C408   1.398       .  A
C403        H410   1.083       .  S
C404        C405   1.411       .  A
C405        C406   1.403       .  A
C405        F412   1.357       .  S
C406        C407   1.401       .  A
C406        H411   1.083       .  S
C407        C408   1.406       .  A
C408        F409   1.358       .  S
C413        C414   1.402       .  A
C413        C418   1.397       .  A
C413        H420   1.083       .  S
C414        C415   1.402       .  A
C415        C416   1.396       .  A
C415        F422   1.357       .  S
C416        C417   1.403       .  A
C416        H421   1.083       .  S
C417        C418   1.402       .  A
C418        F419   1.357       .  S
C423        C424   1.405       .  A
C423        C428   1.396       .  A
C423        H430   1.083       .  S
C424        C425   1.404       .  A
C425        C426   1.393       .  A
C425        F432   1.357       .  S
C426        C427   1.404       .  A
C426        H431   1.083       .  S
C427        C428   1.405       .  A
C428        F429   1.357       .  S
C433        C434   1.403       .  A
C433        C438   1.396       .  A
C433        H440   1.083       .  S
C434        C435   1.402       .  A
C435        C436   1.394       .  A
C435        F442   1.358       .  S
C436        C437   1.405       .  A
C436        H441   1.083       .  S
C437        C438   1.407       .  A
C438        F439   1.357       .  S
C443        C444   1.405       .  A
C443        C448   1.394       .  A
C443        H450   1.084   1_455  S
C444        C445   1.406       .  A
C445        C446   1.398       .  A
C445        F452   1.357   1_565  S
C446        C447   1.401       .  A
C446        H451   1.084       .  S
C447        C448   1.401       .  A
C448        F449   1.357       .  S
C453        C454   1.401       .  A
C453        C458   1.390       .  A
C453        H460   1.084       .  S
C454        C455   1.408       .  A
C455        C456   1.401       .  A
C455        F462   1.357       .  S
C456        C457   1.406       .  A
C456        H461   1.083       .  S
C457        C458   1.408       .  A
C458        F459   1.358       .  S
C463        C464   1.400       .  A
C463        C468   1.394       .  A
C463        H470   1.084       .  S
C464        C465   1.402       .  A
C465        C466   1.395       .  A
C465        F472   1.357       .  S
C466        C467   1.399       .  A
C466        H471   1.084       .  S
C467        C468   1.404       .  A
C468        F469   1.358       .  S
C473        C474   1.402       .  A
C473        C478   1.389       .  A
C473        H480   1.083       .  S
C474        C475   1.410       .  A
C475        C476   1.403       .  A
C475        F482   1.357       .  S
C476        C477   1.401       .  A
C476        H481   1.083       .  S
C477        C478   1.404       .  A
C477        C654   1.474       .  S
C478        F479   1.358       .  S
C483        C484   1.405       .  A
C483        C488   1.392       .  A
C483        H490   1.083       .  S
C484        C485   1.410       .  A
C485        C486   1.400       .  A
C485        F492   1.357       .  S
C486        C487   1.404       .  A
C486        H491   1.083       .  S
C487        C488   1.407       .  A
C488        F489   1.357       .  S
C493        C494   1.399       .  A
C493        C498   1.392       .  A
C493        H500   1.084       .  S
C494        C495   1.402       .  A
C495        C496   1.398       .  A
C495        F502   1.358       .  S
C496        C497   1.404       .  A
C496        H501   1.083       .  S
C497        C498   1.402       .  A
C498        F499   1.357   1_455  S
C503        C504   1.407       .  A
C503        C508   1.398       .  A
C503        H510   1.083       .  S
C504        C505   1.407       .  A
C505        C506   1.397       .  A
C505        F512   1.357       .  S
C506        C507   1.403       .  A
C506        H511   1.082   1_455  S
C507        C508   1.403       .  A
C508        F509   1.358       .  S
O513       Cu521   2.022       .  S
O513        C523   1.278       .  A
O514       Cu521   2.020       .  S
O514        C524   1.280       .  A
O515       Cu521   2.033       .  S
O515        C525   1.281       .  A
O516       Cu521   2.034       .  S
O516        C526   1.281       .  A
O517       Cu522   1.977       .  S
O517        C526   1.274       .  A
O518       Cu522   1.973       .  S
O518        C525   1.274       .  A
O519       Cu522   2.009       .  S
O519        C524   1.278       .  A
O520       Cu522   2.003       .  S
O520        C523   1.279       .  A
Cu521      Cu522   2.369       .  S
C523        C986   1.482       .  S
C524       C1016   1.485       .  S
C525        C996   1.482       .  S
C526       C1006   1.480       .  S
C527        C979   1.479       .  S
C527        C528   1.417       .  A
C527        C532   1.402       .  A
C528       C1019   1.491   1_655  S
C528        C529   1.402   1_655  A
C529        C530   1.404   1_445  A
C529        H534   1.085       .  S
C530        C956   1.475   1_655  S
C530        C531   1.414       .  A
C531        C966   1.485       .  S
C531        C532   1.401   1_565  A
C532        H533   1.085       .  S
C535       C1009   1.485       .  S
C535        C536   1.419   1_455  A
C535        C540   1.405       .  A
C536        C936   1.480       .  S
C536        C537   1.397       .  A
C537        C538   1.391       .  A
C537        H542   1.084       .  S
C538        C946   1.473       .  S
C538        C539   1.412   1_655  A
C539        C929   1.478       .  S
C539        C540   1.403       .  A
C540        H541   1.084       .  S
O543       Cu551   1.995       .  S
O543        C553   1.276       .  A
O544       Cu551   1.995       .  S
O544        C554   1.275       .  A
O545       Cu551   2.003       .  S
O545        C555   1.277       .  A
O546       Cu551   1.988       .  S
O546        C556   1.276       .  A
O547       Cu552   2.007       .  S
O547        C556   1.277       .  A
O548       Cu552   2.011       .  S
O548        C555   1.279       .  A
O549       Cu552   2.003       .  S
O549        C554   1.276       .  A
O550       Cu552   2.011       .  S
O550        C553   1.279       .  A
Cu551      Cu552   2.374       .  S
C553        C916   1.479       .  S
C554        C959   1.457       .  S
C555        C909   1.483       .  S
C556        C926   1.470       .  S
C557        C558   1.538       .  S
C557        C563   1.529       .  S
C557        C561   1.544       .  S
C557        C866   1.525       .  S
C558        H565   1.086       .  S
C558        C559   1.369       .  D
C559        C560   1.541       .  S
C559        C889   1.482       .  S
C560        C564   1.530       .  S
C560        C562   1.534       .  S
C561        H567   1.081       .  S
C561        C562   1.367       .  D
C563        H568   1.087       .  S
C563        C564   1.357       .  D
C569        C570   1.547       .  S
C569        C575   1.528       .  S
C570        H577   1.080       .  S
C570        C571   1.368   1_545  D
C571        C572   1.534       .  S
C571        C846   1.482       .  S
C572        C576   1.534   1_565  S
C572        H578   1.111       .  S
C573        H579   1.085       .  S
C573        C574   1.372   1_545  D
C574        C826   1.489       .  S
C575        H580   1.087       .  S
C575        C576   1.359       .  D
C576        C836   1.466       .  S
O581       Cu589   2.007       .  S
O581        C591   1.279       .  A
O582       Cu589   1.997       .  S
O582        C592   1.276       .  A
O583       Cu589   1.995       .  S
O583        C593   1.276       .  A
O584       Cu589   1.986       .  S
O584        C594   1.274       .  A
O585       Cu590   2.005       .  S
O585        C594   1.277       .  A
O586       Cu590   2.005       .  S
O586        C593   1.279       .  A
O587       Cu590   1.997       .  S
O587        C592   1.276       .  A
O588       Cu590   1.995       .  S
O588        C591   1.276       .  A
Cu589      Cu590   2.377       .  S
C591        C869   1.476       .  S
C592        C816   1.457       .  S
C593        C839   1.478       .  S
C594        C809   1.455       .  S
O595       Cu603   2.015       .  S
O595        C605   1.277       .  A
O596       Cu603   1.996       .  S
O596        C606   1.277       .  A
O597       Cu603   2.016       .  S
O597        C607   1.278       .  A
O598       Cu603   2.010       .  S
O598        C608   1.277       .  A
O599       Cu604   2.002       .  S
O599        C608   1.276       .  A
O600       Cu604   2.010       .  S
O600        C607   1.277       .  A
O601       Cu604   2.003       .  S
O601        C606   1.278       .  A
O602       Cu604   1.995       .  S
O602        C605   1.276       .  A
Cu603      Cu604   2.378       .  S
C605        C879   1.462       .  S
C606        C786   1.473       .  S
C607        C829   1.471       .  S
C608        C796   1.464       .  S
O609       Cu617   2.009       .  S
O609        C619   1.279       .  A
O610       Cu617   2.009       .  S
O610        C620   1.278       .  A
O611       Cu617   1.994       .  S
O611        C621   1.277       .  A
O612       Cu617   2.004       .  S
O612        C622   1.277       .  A
O613       Cu618   1.996       .  S
O613        C622   1.277       .  A
O614       Cu618   2.009       .  S
O614        C621   1.278       .  A
O615       Cu618   1.995       .  S
O615        C620   1.276       .  A
O616       Cu618   1.993       .  S
O616        C619   1.276       .  A
Cu617      Cu618   2.374       .  S
C619        C746   1.478       .  S
C620        C766   1.465       .  S
C621        C756   1.473       .  S
C622        C779   1.473       .  S
C623        C629   1.531       .  S
C623        C627   1.544       .  S
C624        H631   1.086       .  S
C624        C625   1.368   1_565  D
C625        C999   1.480       .  S
C626        C630   1.538   1_545  S
C626        C628   1.533       .  S
C626        H632   1.110       .  S
C627        H633   1.081       .  S
C627        C628   1.365   1_565  D
C628        C739   1.483       .  S
C629        H634   1.087       .  S
C629        C630   1.362       .  D
C630        C906   1.471       .  S
O635       Cu643   2.021       .  S
O635        C645   1.279       .  A
O636       Cu643   2.016       .  S
O636        C646   1.279       .  A
O637       Cu643   2.015       .  S
O637        C647   1.279       .  A
O638       Cu643   2.001       .  S
O638        C648   1.277       .  A
O639       Cu644   1.996       .  S
O639        C648   1.277       .  A
O640       Cu644   1.996       .  S
O640        C647   1.277       .  A
O641       Cu644   2.000       .  S
O641        C646   1.277       .  A
O642       Cu644   1.993       .  S
O642        C645   1.277       .  A
Cu643      Cu644   2.371       .  S
C645        C736   1.482       .  S
C646        C716   1.480       .  S
C647        C706   1.482       .  S
C648        C726   1.473       .  S
C649        C650   1.537       .  S
C649        C655   1.525       .  S
C650        H657   1.086       .  S
C650        C651   1.372       .  D
C651        C652   1.544       .  S
C651        C709   1.489       .  S
C652        C656   1.540       .  S
C652        C654   1.532       .  S
C652        H658   1.109       .  S
C653        H659   1.081       .  S
C655        H660   1.087       .  S
C655        C656   1.361       .  D
C656        C919   1.468       .  S
C661        C729   1.481       .  S
C661        C662   1.414       .  A
C661        C666   1.401   1_545  A
C662        C819   1.470       .  S
C662        C663   1.396   1_545  A
C663        C664   1.399       .  A
C663        H668   1.084       .  S
C664        C789   1.480       .  S
C664        C665   1.415       .  A
C665        C769   1.472       .  S
C665        C666   1.398       .  A
C666        H667   1.084       .  S
C669        C719   1.488       .  S
C669        C670   1.414       .  A
C669        C674   1.400       .  A
C670        C806   1.467       .  S
C670        C671   1.398       .  A
C671        C672   1.396       .  A
C671        H676   1.084       .  S
C672        C799   1.474       .  S
C672        C673   1.411       .  A
C673        C776   1.476       .  S
C673        C674   1.404       .  A
C674        H675   1.084       .  S
O677       Cu685   1.988       .  S
O677        C687   1.276       .  A
O678       Cu685   1.987       .  S
O678        C688   1.275       .  A
O679       Cu685   2.010       .  S
O679        C689   1.278       .  A
O680       Cu685   1.998       .  S
O680        C690   1.276       .  A
O681       Cu686   2.006       .  S
O681        C690   1.276       .  A
O682       Cu686   2.001       .  S
O682        C689   1.277       .  A
O683       Cu686   1.994       .  S
O683        C688   1.276       .  A
O684       Cu686   2.008       .  S
O684        C687   1.278       .  A
Cu685      Cu686   2.378       .  S
C687        C859   1.477       .  S
C688        C939   1.453       .  S
C689        C899   1.473       .  S
C690        C976   1.459       .  S
O691       Cu699   2.009       .  S
O691        C701   1.278       .  A
O692       Cu699   1.998       .  S
O692        C702   1.277       .  A
O693       Cu699   2.021       .  S
O693        C703   1.279       .  A
O694       Cu699   2.013       .  S
O694        C704   1.278       .  A
O695       Cu700   1.992       .  S
O695        C704   1.275       .  A
O696       Cu700   1.992       .  S
O696        C703   1.277       .  A
O697       Cu700   2.026       .  S
O697        C702   1.280       .  A
O698       Cu700   2.017       .  S
O698        C701   1.279       .  A
Cu699      Cu700   2.372       .  S
C701        C886   1.486       .  S
C702        C969   1.481       .  S
C703        C849   1.484       .  S
C704        C949   1.464       .  S
C705        C706   1.407       .  A
C705        C710   1.401       .  A
C705        H712   1.083       .  S
C706        C707   1.408       .  A
C707        C708   1.393       .  A
C707        F714   1.358       .  S
C708        C709   1.405       .  A
C708        H713   1.082       .  S
C709        C710   1.408       .  A
C710        F711   1.357       .  S
C715        C716   1.406       .  A
C715        C720   1.401       .  A
C715        H722   1.084       .  S
C716        C717   1.407       .  A
C717        C718   1.394       .  A
C717        F724   1.357       .  S
C718        C719   1.404       .  A
C718        H723   1.082       .  S
C719        C720   1.407       .  A
C720        F721   1.357       .  S
C725        C726   1.404       .  A
C725        C730   1.395       .  A
C725        H732   1.083       .  S
C726        C727   1.407       .  A
C727        C728   1.395       .  A
C727        F734   1.357       .  S
C728        C729   1.403       .  A
C728        H733   1.083       .  S
C729        C730   1.405       .  A
C730        F731   1.356       .  S
C735        C736   1.404       .  A
C735        C740   1.391       .  A
C735        H742   1.083       .  S
C736        C737   1.411       .  A
C737        C738   1.403       .  A
C737        F744   1.357       .  S
C738        C739   1.404       .  A
C738        H743   1.082       .  S
C739        C740   1.406       .  A
C740        F741   1.358       .  S
C745        C746   1.402       .  A
C745        C750   1.395   1_556  A
C745        H752   1.083       .  S
C746        C747   1.407       .  A
C747        C748   1.396       .  A
C747        F754   1.358       .  S
C748        C749   1.410       .  A
C748        H753   1.075       .  S
C749        C750   1.412   1_556  A
C755        C756   1.402       .  A
C755        C760   1.398       .  A
C755        H762   1.083       .  S
C756        C757   1.402       .  A
C757        C758   1.393       .  A
C757        F764   1.358       .  S
C758        C759   1.412       .  A
C759        C760   1.413       .  A
C760        F761   1.358       .  S
C765        C766   1.404       .  A
C765        C770   1.396       .  A
C765        H772   1.083       .  S
C766        C767   1.403       .  A
C767        C768   1.396       .  A
C767        F774   1.358       .  S
C768        C769   1.402       .  A
C768        H773   1.083       .  S
C769        C770   1.401       .  A
C770        F771   1.357       .  S
C775        C776   1.403       .  A
C775        C780   1.398       .  A
C775        H782   1.083       .  S
C776        C777   1.403       .  A
C777        C778   1.392       .  A
C777        F784   1.358       .  S
C778        C779   1.404       .  A
C778        H783   1.083       .  S
C779        C780   1.408       .  A
C780        F781   1.357       .  S
C785        C786   1.406       .  A
C785        C790   1.396       .  A
C785        H792   1.083       .  S
C786        C787   1.405       .  A
C787        C788   1.393       .  A
C787        F794   1.357       .  S
C788        C789   1.402       .  A
C788        H793   1.079       .  S
C789        C790   1.406       .  A
C790        F791   1.358       .  S
C795        C796   1.401       .  A
C795        C800   1.397       .  A
C795        H802   1.083       .  S
C796        C797   1.404       .  A
C797        C798   1.398       .  A
C797        F804   1.358       .  S
C798        C799   1.402       .  A
C798        H803   1.083       .  S
C799        C800   1.404       .  A
C800        F801   1.357       .  S
C805        C806   1.399       .  A
C805        C810   1.393       .  A
C805        H812   1.084       .  S
C806        C807   1.405       .  A
C807        C808   1.395       .  A
C807        F814   1.358       .  S
C808        C809   1.399       .  A
C808        H813   1.084       .  S
C809        C810   1.402       .  A
C810        F811   1.357       .  S
C815        C816   1.400       .  A
C815        C820   1.395       .  A
C815        H822   1.083       .  S
C816        C817   1.401       .  A
C817        C818   1.395       .  A
C817        F824   1.358       .  S
C818        C819   1.402       .  A
C818        H823   1.083   1_545  S
C819        C820   1.403       .  A
C820        F821   1.357       .  S
C825        C826   1.407       .  A
C825        C830   1.399       .  A
C826        C827   1.410       .  A
C827        C828   1.400       .  A
C827        F834   1.357       .  S
C828        C829   1.401       .  A
C828        H833   1.084       .  S
C829        C830   1.402       .  A
C830        F831   1.357       .  S
C835        C836   1.399       .  A
C835        C840   1.397       .  A
C835        H842   1.083       .  S
C836        C837   1.401       .  A
C837        C838   1.394       .  A
C837        F844   1.358       .  S
C838        C839   1.405       .  A
C838        H843   1.083       .  S
C839        C840   1.411       .  A
C840        F841   1.358       .  S
C845        C846   1.404       .  A
C845        C850   1.403       .  A
C845        H852   1.083       .  S
C846        C847   1.405       .  A
C847        C848   1.392       .  A
C847        F854   1.358       .  S
C848        C849   1.406       .  A
C848        H853   1.083       .  S
C849        C850   1.411       .  A
C850        F851   1.357       .  S
C855        H862   1.075       .  S
C856        C857   1.413       .  A
C857        C858   1.396       .  A
C857        F864   1.358       .  S
C858        C859   1.402       .  A
C858        H863   1.083       .  S
C859        C860   1.406       .  A
C865        C866   1.410       .  A
C865        C870   1.395       .  A
C865        H872   1.076       .  S
C866        C867   1.412       .  A
C867        C868   1.395       .  A
C867        F874   1.358       .  S
C868        C869   1.401       .  A
C868        H873   1.083       .  S
C869        C870   1.406       .  A
C870        F871   1.358       .  S
C875        C876   1.404       .  A
C875        C880   1.398       .  A
C875        H882   1.084   1_556  S
C876        C877   1.408       .  A
C877        C878   1.396       .  A
C877        F884   1.358       .  S
C878        C879   1.400       .  A
C878        H883   1.085       .  S
C879        C880   1.401       .  A
C880        F881   1.357       .  S
C885        C886   1.407       .  A
C885        C890   1.399       .  A
C885        H892   1.083       .  S
C886        C887   1.411       .  A
C887        C888   1.398       .  A
C887        F894   1.357       .  S
C888        C889   1.403       .  A
C888        H893   1.083       .  S
C889        C890   1.404       .  A
C890        F891   1.357       .  S
C895        C896   1.401       .  A
C895        C900   1.397       .  A
C895        H902   1.084       .  S
C897        C898   1.393       .  A
C897        F904   1.357       .  S
C898        H903   1.083       .  S
C899        C900   1.408       .  A
C900        F901   1.357       .  S
C905        C906   1.400       .  A
C905        C910   1.399       .  A
C905        H912   1.084       .  S
C906        C907   1.401       .  A
C907        C908   1.397       .  A
C907        F914   1.357       .  S
C908        C909   1.407       .  A
C908        H913   1.083       .  S
C909        C910   1.412       .  A
C910        F911   1.357       .  S
C915        C916   1.405       .  A
C915        C920   1.395       .  A
C915        H922   1.083       .  S
C916        C917   1.412       .  A
C917        C918   1.398       .  A
C917        F924   1.358       .  S
C918        C919   1.398       .  A
C918        H923   1.083       .  S
C919        C920   1.403       .  A
C920        F921   1.358       .  S
C925        C926   1.405       .  A
C925        C930   1.399       .  A
C925        H932   1.083       .  S
C926        C927   1.405       .  A
C927        C928   1.390       .  A
C927        F934   1.358       .  S
C928        C929   1.402       .  A
C928        H933   1.081       .  S
C929        C930   1.406       .  A
C930        F931   1.357       .  S
C935        C936   1.405       .  A
C935        C940   1.390       .  A
C935        H942   1.082       .  S
C936        C937   1.409       .  A
C937        C938   1.394       .  A
C937        F944   1.358       .  S
C938        C939   1.398       .  A
C938        H943   1.084       .  S
C939        C940   1.400       .  A
C940        F941   1.357       .  S
C945        C946   1.403       .  A
C945        C950   1.395       .  A
C945        H952   1.084       .  S
C946        C947   1.403       .  A
C947        C948   1.397       .  A
C947        F954   1.357       .  S
C948        C949   1.403       .  A
C948        H953   1.084       .  S
C949        C950   1.403       .  A
C950        F951   1.357       .  S
C955        C956   1.403       .  A
C955        C960   1.395       .  A
C955        H962   1.083   1_455  S
C956        C957   1.406       .  A
C957        C958   1.397       .  A
C957        F964   1.357   1_565  S
C958        C959   1.399       .  A
C958        H963   1.083       .  S
C959        C960   1.402       .  A
C960        F961   1.358       .  S
C965        C966   1.402       .  A
C965        C970   1.396       .  A
C965        H972   1.084       .  S
C966        C967   1.407       .  A
C967        C968   1.403       .  A
C967        F974   1.357       .  S
C968        C969   1.406       .  A
C968        H973   1.083       .  S
C969        C970   1.409       .  A
C970        F971   1.358       .  S
C975        C976   1.400       .  A
C975        C980   1.396       .  A
C975        H982   1.084       .  S
C976        C977   1.401       .  A
C977        C978   1.395       .  A
C977        F984   1.356       .  S
C978        C979   1.404       .  A
C978        H983   1.084       .  S
C979        C980   1.407       .  A
C980        F981   1.357       .  S
C985        C986   1.403       .  A
C985        C990   1.391       .  A
C985        H992   1.083       .  S
C986        C987   1.412       .  A
C987        C988   1.407   1_556  A
C987        F994   1.357   1_556  S
C988        C989   1.403       .  A
C988        H993   1.083       .  S
C989        C990   1.405   1_554  A
C990        F991   1.358       .  S
C995        C996   1.406       .  A
C995       C1000   1.389       .  A
C995       H1002   1.083       .  S
C996        C997   1.409       .  A
C997        C998   1.404       .  A
C997       F1004   1.357       .  S
C998        C999   1.405       .  A
C998       H1003   1.083   1_556  S
C999       C1000   1.405       .  A
C1000      F1001   1.358       .  S
C1005      C1006   1.406       .  A
C1005      C1010   1.391       .  A
C1005      H1012   1.083       .  S
C1006      C1007   1.408       .  A
C1007      C1008   1.403       .  A
C1007      F1014   1.357       .  S
C1008      C1009   1.408       .  A
C1008      H1013   1.083   1_455  S
C1009      C1010   1.403       .  A
C1010      F1011   1.358       .  S
C1015      C1016   1.408       .  A
C1015      C1020   1.402       .  A
C1015      H1022   1.083       .  S
C1016      C1017   1.408       .  A
C1017      C1018   1.397       .  A
C1017      F1024   1.357       .  S
C1018      C1019   1.405       .  A
C1018      H1023   1.083   1_455  S
C1019      C1020   1.406       .  A
C1020      F1021   1.357       .  S
