geometry optimzed in LAMMPS
_audit_creation_date              2020-12-01 
_audit_creation_method            'lammps2cif' 
_symmetry_space_group_name_H-M    'P1' 
_symmetry_Int_Tables_number       1 
_symmetry_cell_setting            triclinic 
loop_ 
_symmetry_equiv_pos_as_xyz 
  x,y,z 
_cell_length_a                    47.81756051 
_cell_length_b                    47.9389133321566 
_cell_length_c                    47.90533708092141 
_cell_angle_alpha                 89.7686761499138 
_cell_angle_beta                  90.03180585449215 
_cell_angle_gamma                 89.80781484097363 
loop_ 
_atom_site_label 
_atom_site_type_symbol 
_atom_site_fract_x 
_atom_site_fract_y 
_atom_site_fract_z 
_atom_site_charge 
O1          O  0.15543984  0.59385074  0.48349198    -0.83900
O2          O  0.19222518  0.62930610  0.50763398    -0.81000
C3          C  0.20586199  0.64299870  0.52520929     0.99500
O4          O  0.19953021  0.64092593  0.55094055    -0.81000
O5          O  0.14142252  0.65433155  0.55670704    -0.83600
C6          C  0.11517170  0.65115954  0.55522871     1.04100
O7          O  0.10478582  0.62687709  0.55393153    -0.76400
O8          O  0.11721548  0.61230994  0.50138033    -0.76600
C9          C  0.13212124  0.60630124  0.48078132     1.04000
O10         O  0.17303262  0.55086328  0.52239091    -0.83900
O11         O  0.21178977  0.58591870  0.54513189    -0.81000
C12         C  0.20984263  0.58284375  0.57139961     0.99600
O13         O  0.18924881  0.59272298  0.58455657    -0.81000
O14         O  0.13441330  0.60826696  0.59519055    -0.83600
C15         C  0.12219617  0.58475760  0.59392264     1.04000
O16         O  0.12226520  0.57130453  0.57153089    -0.76400
O17         O  0.12815948  0.55595425  0.51662396    -0.76600
C18         C  0.14978714  0.54071331  0.51570146     1.04000
Cr19       Cr  0.18126891  0.59086602  0.51645313     1.93700
Cr20       Cr  0.16547983  0.62282866  0.56968214     1.93200
Cr21       Cr  0.12074642  0.59221026  0.53644577     1.39100
O22         O  0.15592140  0.60213323  0.54063747    -1.21700
O23         O  0.13283607  0.56656940  0.27433990    -0.83900
O24         O  0.13474654  0.52882580  0.23149294    -0.81000
C25         C  0.10978616  0.53275164  0.22410817     0.99500
O26         O  0.10321932  0.55443227  0.21045704    -0.81000
O27         O  0.10649163  0.60976567  0.19107778    -0.83600
C28         C  0.09833993  0.62614078  0.21023721     1.04100
O29         O  0.11164431  0.62714358  0.23288799    -0.76400
O30         O  0.14543561  0.61067598  0.27544732    -0.76600
C31         C  0.13263134  0.59008963  0.28597749     1.04000
O32         O  0.19014450  0.57922603  0.26578163    -0.83900
O33         O  0.18931750  0.54765373  0.21823814    -0.81000
C34         C  0.18229534  0.53852751  0.19465184     0.99600
O35         O  0.15788265  0.54315363  0.18509604    -0.81000
O36         O  0.16234350  0.59821009  0.17107570    -0.83600
C37         C  0.16752638  0.62355444  0.17570293     1.04000
O38         O  0.15884333  0.63545866  0.19751720    -0.76400
O39         O  0.19358807  0.61603367  0.23925673    -0.76600
C40         C  0.20432369  0.59942702  0.25675089     1.04000
Cr41       Cr  0.16086163  0.55756742  0.24585486     1.93700
Cr42       Cr  0.13329120  0.57688476  0.19172198     1.93200
Cr43       Cr  0.15220707  0.61973067  0.23543441     1.39100
O44         O  0.14866747  0.58493569  0.22424627    -1.21700
O45         O  0.26391145  0.11576129  0.56725978    -0.83900
O46         O  0.21589994  0.11977432  0.53594172    -0.81000
C47         C  0.21155666  0.09412366  0.53930514     0.99500
O48         O  0.20016436  0.08583005  0.56172651    -0.81000
O49         O  0.18693036  0.08452405  0.61897012    -0.83600
C50         C  0.20810634  0.07530532  0.63206993     1.04100
O51         O  0.23076077  0.08862212  0.63105446    -0.76400
O52         O  0.27071543  0.12409762  0.61187357    -0.76600
C53         C  0.27873729  0.11374838  0.58892784     1.04000
O54         O  0.25641379  0.17158663  0.58588686    -0.83900
O55         O  0.20469854  0.17236021  0.56076481    -0.81000
C56         C  0.18027208  0.16551384  0.55380366     0.99600
O57         O  0.17180092  0.14069524  0.55799260    -0.81000
O58         O  0.16505854  0.14056904  0.61499237    -0.83600
C59         C  0.17329294  0.14406325  0.63988059     1.04000
O60         O  0.19671774  0.13463229  0.64779131    -0.76400
O61         O  0.23537350  0.17123662  0.62611261    -0.76600
C62         C  0.25024142  0.18379649  0.60828988     1.04000
Cr63       Cr  0.23391403  0.14380040  0.56461003     1.93700
Cr64       Cr  0.18321683  0.11371127  0.58855403     1.93200
Cr65       Cr  0.23222612  0.12967832  0.62672759     1.39100
O66         O  0.21635639  0.12905206  0.59357099    -1.21700
O67         O  0.48359287  0.15510092  0.59693576    -0.83900
O68         O  0.50914797  0.18858772  0.63464502    -0.81000
C69         C  0.52684054  0.19944732  0.65051722     0.99500
O70         O  0.55225144  0.19130294  0.64981875    -0.81000
O71         O  0.55376105  0.13255158  0.66301905    -0.83600
C72         C  0.55082660  0.10652877  0.65910125     1.04100
O73         O  0.54740620  0.09757837  0.63455081    -0.76400
O74         O  0.49593307  0.11672259  0.61885643    -0.76600
C75         C  0.47722408  0.13256262  0.60929041     1.04000
O76         O  0.52670682  0.16811114  0.55726830    -0.83900
O77         O  0.55064271  0.20474814  0.59372428    -0.81000
C78         C  0.57653660  0.19991623  0.59055784     0.99600
O79         O  0.58765073  0.17900165  0.60227979    -0.81000
O80         O  0.59242736  0.12340315  0.61728997    -0.83600
C81         C  0.59011081  0.11114593  0.59386804     1.04000
O82         O  0.56765377  0.11246693  0.58038919    -0.76400
O83         O  0.51502207  0.12445049  0.56287990    -0.76600
C84         C  0.51824762  0.14545480  0.54722967     1.04000
Cr85       Cr  0.51916334  0.17720614  0.59680446     1.93700
Cr86       Cr  0.56928128  0.15625433  0.63177639     1.93200
Cr87       Cr  0.53218550  0.11536564  0.60000269     1.39100
O88         O  0.54012898  0.14971214  0.60973396    -1.21700
O89         O  0.60795202  0.47513793  0.16482060    -0.83900
O90         O  0.64298713  0.50652577  0.19602486    -0.81000
C91         C  0.65540477  0.52643720  0.20740290     0.99500
O92         O  0.64960781  0.55129242  0.19992191    -0.81000
O93         O  0.66115178  0.55272073  0.14133083    -0.83600
C94         C  0.65749947  0.54802499  0.11555069     1.04100
O95         O  0.63325531  0.54274163  0.10622448    -0.76400
O96         O  0.62359851  0.49036148  0.12443160    -0.76600
C97         C  0.61944250  0.47082808  0.14140971     1.04000
O98         O  0.56242505  0.51094548  0.18016234    -0.83900
O99         O  0.59649196  0.54122764  0.21423458    -0.81000
C100        C  0.58906832  0.56616214  0.20904949     0.99600
O101        O  0.59724228  0.57835370  0.18717293    -0.81000
O102        O  0.61160068  0.58509340  0.13155519    -0.83600
C103        C  0.58850010  0.58027997  0.11941407     1.04000
O104        O  0.57670094  0.55722375  0.12286387    -0.76400
O105        O  0.56622060  0.50266713  0.13543324    -0.76600
C106        C  0.55202493  0.50231373  0.15769619     1.04000
Cr107      Cr  0.60320020  0.51018636  0.18684807     1.93700
Cr108      Cr  0.62880192  0.56459093  0.16472807     1.93200
Cr109      Cr  0.60060227  0.52406173  0.12473676     1.39100
O110        O  0.61095772  0.53274852  0.15879021    -1.21700
O111        O  0.58101120  0.25896206  0.13228318    -0.83900
O112        O  0.54228696  0.21660038  0.12927560    -0.81000
C113        C  0.54638544  0.21092268  0.10396930     0.99500
O114        O  0.56801346  0.19746283  0.09684127    -0.81000
O115        O  0.62331333  0.17711943  0.09946382    -0.83600
C116        C  0.64068887  0.19611554  0.09327902     1.04100
O117        O  0.64161482  0.21800620  0.10780976    -0.76400
O118        O  0.62504453  0.25795590  0.14534073    -0.76600
C119        C  0.60474436  0.27032403  0.13363696     1.04000
O120        O  0.59256163  0.24414071  0.18866730    -0.83900
O121        O  0.55963082  0.19745298  0.18293885    -0.81000
C122        C  0.55023843  0.17478364  0.17354357     0.99600
O123        O  0.55576619  0.16744233  0.14866859    -0.81000
O124        O  0.61133219  0.15242593  0.15254007    -0.83600
C125        C  0.63693257  0.15628062  0.15767371     1.04000
O126        O  0.64876299  0.17909371  0.15208016    -0.76400
O127        O  0.62961822  0.21770273  0.19017666    -0.76600
C128        C  0.61276112  0.23398692  0.20226444     1.04000
Cr129      Cr  0.57097636  0.22767703  0.15726140     1.93700
Cr130      Cr  0.59008056  0.17597091  0.12549830     1.93200
Cr131      Cr  0.63347680  0.21741938  0.14853421     1.39100
O132        O  0.59838406  0.20692159  0.14368780    -1.21700
O133        O  0.69125036  0.86885084  0.51920494    -0.83900
O134        O  0.72567698  0.87089755  0.47320668    -0.81000
C135        C  0.72192963  0.84551407  0.46819575     0.99500
O136        O  0.69973825  0.83796073  0.45583783    -0.81000
O137        O  0.64271885  0.83897638  0.44102893    -0.83600
C138        C  0.62893676  0.83036935  0.46200456     1.04100
O139        O  0.62921974  0.84427994  0.48425729    -0.76400
O140        O  0.64719177  0.88083219  0.52354892    -0.76600
C141        C  0.66862364  0.86832732  0.53269176     1.04000
O142        O  0.67573724  0.92548371  0.50945396    -0.83900
O143        O  0.70464774  0.92415900  0.45952532    -0.81000
C144        C  0.71293414  0.91622099  0.43581490     0.99600
O145        O  0.70663653  0.89196164  0.42716672    -0.81000
O146        O  0.64945481  0.89493815  0.41845767    -0.83600
C147        C  0.62424346  0.89912854  0.42554899     1.04000
O148        O  0.61496290  0.88944435  0.44820110    -0.76400
O149        O  0.63643183  0.92673382  0.48646543    -0.76600
C150        C  0.65385246  0.93841688  0.50238374     1.04000
Cr151      Cr  0.69714383  0.89639481  0.48900979     1.93700
Cr152      Cr  0.67431528  0.86684962  0.43772968     1.93200
Cr153      Cr  0.63452479  0.88522531  0.48448746     1.39100
O154        O  0.66847870  0.88288699  0.47023996    -1.21700
O155        O  0.66066237  0.91043732  0.73690587    -0.83900
O156        O  0.62392727  0.94374460  0.76487414    -0.81000
C157        C  0.60819886  0.95296169  0.78373852     0.99500
O158        O  0.61078296  0.94448287  0.80879984    -0.81000
O159        O  0.59848801  0.88712445  0.81054699    -0.83600
C160        C  0.60126541  0.86145745  0.80525661     1.04100
O161        O  0.62521803  0.85139113  0.80021338    -0.76400
O162        O  0.63861443  0.87234717  0.74873576    -0.76600
C163        C  0.64785005  0.88845601  0.73017821     1.04000
O164        O  0.70262155  0.92168492  0.77750050    -0.83900
O165        O  0.66710094  0.95861918  0.80363181    -0.81000
C166        C  0.67092758  0.95382951  0.82928750     0.99600
O167        O  0.66047140  0.93271212  0.84096519    -0.81000
O168        O  0.64678208  0.87707652  0.84594110    -0.83600
C169        C  0.67002121  0.86483162  0.84172774     1.04000
O170        O  0.68100997  0.86478227  0.81796077    -0.76400
O171        O  0.69591709  0.87846800  0.76511253    -0.76600
C172        C  0.71209936  0.89912281  0.76782577     1.04000
Cr173      Cr  0.66248261  0.93157482  0.77246766     1.93700
Cr174      Cr  0.63048507  0.90991857  0.82419522     1.93200
Cr175      Cr  0.65939221  0.86935027  0.78390966     1.39100
O176        O  0.65063774  0.90371507  0.79356462    -1.21700
O177        O  0.24642449  0.85609918  0.08341515    -0.83900
O178        O  0.28926458  0.85996377  0.04491542    -0.81000
C179        C  0.29459951  0.88537019  0.04837895     0.99500
O180        O  0.30740192  0.89321790  0.07014814    -0.81000
O181        O  0.32620022  0.89182645  0.12634712    -0.83600
C182        C  0.30622216  0.89720927  0.14305976     1.04100
O183        O  0.28516136  0.88149841  0.14357249    -0.76400
O184        O  0.24750528  0.84227499  0.12712747    -0.76600
C185        C  0.23479843  0.85371327  0.10694203     1.04000
O186        O  0.26304441  0.80015831  0.09537095    -0.83900
O187        O  0.30967962  0.80751680  0.06276876    -0.81000
C188        C  0.33210014  0.81743503  0.05315556     0.99600
O189        O  0.33931142  0.84219024  0.05938202    -0.81000
O190        O  0.35326811  0.83894645  0.11517378    -0.83600
C191        C  0.34915225  0.83362580  0.14070089     1.04000
O192        O  0.32617339  0.83946563  0.15218859    -0.76400
O193        O  0.28949868  0.79958618  0.13244366    -0.76600
C194        C  0.27336963  0.78708766  0.11582402     1.04000
Cr195      Cr  0.27865496  0.83207197  0.07376545     1.93700
Cr196      Cr  0.32931158  0.86541608  0.09327956     1.93200
Cr197      Cr  0.28795706  0.84105618  0.13607981     1.39100
O198        O  0.29875927  0.84629137  0.10117902    -1.21700
O199        O  0.01976156  0.81426238  0.12657023    -0.83900
O200        O  0.97583723  0.77732298  0.12605140    -0.81000
C201        C  0.97027332  0.77976553  0.15158483     0.99500
O202        O  0.95660600  0.80082068  0.16003498    -0.81000
O203        O  0.93707263  0.85658134  0.16117056    -0.83600
C204        C  0.95694398  0.87183715  0.16975967     1.04100
O205        O  0.97935642  0.87289108  0.15597096    -0.76400
O206        O  0.01997945  0.85941971  0.11809764    -0.76600
C207        C  0.03212423  0.83742348  0.12637486     1.04000
O208        O  0.00636005  0.83113214  0.07146788    -0.83900
O209        O  0.95891493  0.79958935  0.07370362    -0.81000
C210        C  0.93618431  0.78917579  0.08179400     0.99600
O211        O  0.92778986  0.79337467  0.10659311    -0.81000
O212        O  0.91448815  0.84957188  0.10573713    -0.83600
C213        C  0.91931555  0.87535985  0.10264565     1.04000
O214        O  0.94175905  0.88590586  0.11156852    -0.76400
O215        O  0.98157799  0.86941806  0.07304036    -0.76600
C216        C  0.99760628  0.85309854  0.05987001     1.04000
Cr217      Cr  0.98856528  0.80764748  0.10068639     1.93700
Cr218      Cr  0.93624150  0.82558360  0.13243629     1.93200
Cr219      Cr  0.97976556  0.86923230  0.11477506     1.39100
O220        O  0.96816580  0.83433816  0.11602077    -1.21700
O221        O  0.38465422  0.97817253  0.33450544    -0.83900
O222        O  0.38206318  0.01899330  0.29414732    -0.81000
C223        C  0.35675046  0.02522890  0.29767856     0.99500
O224        O  0.34955023  0.03960942  0.31866070    -0.81000
O225        O  0.35169692  0.05988839  0.37372620    -0.83600
C226        C  0.34499781  0.04022769  0.39032195     1.04100
O227        O  0.36048529  0.01896193  0.39223125    -0.76400
O228        O  0.39928778  0.97973324  0.37775273    -0.76600
C229        C  0.38638661  0.96733267  0.35845798     1.04000
O230        O  0.44172459  0.99295932  0.34545825    -0.83900
O231        O  0.43549992  0.03805337  0.31028760    -0.81000
C232        C  0.42622935  0.06054242  0.30004858     0.99600
O233        O  0.40178674  0.06898300  0.30639554    -0.81000
O234        O  0.40604693  0.08445645  0.36182897    -0.83600
C235        C  0.41107446  0.08086512  0.38754317     1.04000
O236        O  0.40346426  0.05886311  0.39978459    -0.76400
O237        O  0.44291971  0.02077052  0.38130245    -0.76600
C238        C  0.45522550  0.00385309  0.36526472     1.04000
Cr239      Cr  0.40997138  0.00861565  0.32316652     1.93700
Cr240      Cr  0.37837597  0.06110361  0.34076604     1.93200
Cr241      Cr  0.40125688  0.02036858  0.38503057     1.39100
O242        O  0.39649620  0.03020650  0.34973937    -1.21700
O243        O  0.42239265  0.76321975  0.35903700    -0.83900
O244        O  0.45755903  0.73483017  0.39316499    -0.81000
C245        C  0.46812534  0.71586680  0.40796458     0.99500
O246        O  0.46010484  0.69070210  0.40511205    -0.81000
O247        O  0.40243996  0.68804069  0.41969020    -0.83600
C248        C  0.37643460  0.69265444  0.41732246     1.04100
O249        O  0.36591760  0.69745197  0.39353712    -0.76400
O250        O  0.38521670  0.74933914  0.38178683    -0.76600
C251        C  0.40137547  0.76851565  0.37423157     1.04000
O252        O  0.43354043  0.72344037  0.31548533    -0.83900
O253        O  0.47194678  0.69716092  0.34882688    -0.81000
C254        C  0.46688869  0.67179423  0.34382737     0.99600
O255        O  0.44618419  0.65997690  0.35497319    -0.81000
O256        O  0.39137164  0.65386871  0.37113709    -0.83600
C257        C  0.37821740  0.65818764  0.34840262     1.04000
O258        O  0.37841946  0.68182494  0.33704806    -0.76400
O259        O  0.39037001  0.73568049  0.32363875    -0.76600
C260        C  0.41052312  0.73282799  0.30677617     1.04000
Cr261      Cr  0.44441379  0.72798273  0.35510787     1.93700
Cr262      Cr  0.42467053  0.67541246  0.38655100     1.93200
Cr263      Cr  0.38253800  0.71532341  0.35959662     1.39100
O264        O  0.41732028  0.70626799  0.36733005    -1.21700
O265        O  0.52299375  0.67759750  0.86803463    -0.83900
O266        O  0.47672955  0.71170484  0.87255403    -0.81000
C267        C  0.47043799  0.70851585  0.84732140     0.99500
O268        O  0.45740226  0.68674992  0.83984362    -0.81000
O269        O  0.44111854  0.62996839  0.84106479    -0.83600
C270        C  0.46094896  0.61538147  0.83121865     1.04100
O271        O  0.48452463  0.61588482  0.84290328    -0.76400
O272        O  0.52669644  0.63265855  0.87689915    -0.76600
C273        C  0.53626279  0.65490327  0.86642347     1.04000
O274        O  0.51582299  0.66041915  0.92413362    -0.83900
O275        O  0.46574140  0.68918315  0.92604216    -0.81000
C276        C  0.44187845  0.69821861  0.91925002     0.99600
O277        O  0.43204911  0.69334733  0.89511494    -0.81000
O278        O  0.42242252  0.63637934  0.89789487    -0.83600
C279        C  0.42934327  0.61098542  0.90112495     1.04000
O280        O  0.45155926  0.60172216  0.89031971    -0.76400
O281        O  0.49271301  0.62134563  0.92502997    -0.76600
C282        C  0.50895568  0.63838904  0.93670247     1.04000
Cr283      Cr  0.49380831  0.68259696  0.89668075     1.93700
Cr284      Cr  0.44049541  0.66129535  0.86918861     1.93200
Cr285      Cr  0.48786769  0.62050586  0.88378458     1.39100
O286        O  0.47402369  0.65460964  0.88315369    -1.21700
O287        O  0.73944975  0.62499533  0.92310015    -0.83900
O288        O  0.78037260  0.62154939  0.96390683    -0.81000
C289        C  0.78556961  0.59613418  0.96024874     0.99500
O290        O  0.80036709  0.58847953  0.93963585    -0.81000
O291        O  0.82257955  0.59104041  0.88510220    -0.83600
C292        C  0.80301742  0.58455826  0.86840713     1.04100
O293        O  0.78204249  0.60039542  0.86587171    -0.76400
O294        O  0.74326382  0.63945547  0.87967470    -0.76600
C295        C  0.72970676  0.62719003  0.89866686     1.04000
O296        O  0.75555152  0.68087293  0.91266752    -0.83900
O297        O  0.80066016  0.67440792  0.94733805    -0.81000
C298        C  0.82331102  0.66487585  0.95703699     0.99600
O299        O  0.83010923  0.63967115  0.95276498    -0.81000
O300        O  0.84665527  0.64563106  0.89883783    -0.83600
C301        C  0.84309075  0.65246352  0.87359937     1.04000
O302        O  0.82292212  0.64272081  0.85997736    -0.76400
O303        O  0.78441437  0.68251167  0.87743288    -0.76600
C304        C  0.76736505  0.69454708  0.89359639     1.04000
Cr305      Cr  0.77058052  0.64938020  0.93491541     1.93700
Cr306      Cr  0.82295803  0.61710917  0.91832663     1.93200
Cr307      Cr  0.78383993  0.64094778  0.87329923     1.39100
O308        O  0.79239461  0.63552513  0.90874195    -1.21700
O309        O  0.33207505  0.38317542  0.99271145    -0.83900
O310        O  0.29511070  0.38090893  0.03722340    -0.81000
C311        C  0.29720900  0.35483599  0.03838235     0.99500
O312        O  0.31921495  0.34418464  0.04860832    -0.81000
O313        O  0.37510618  0.33939175  0.06640834    -0.83600
C314        C  0.39270672  0.33542720  0.04709676     1.04100
O315        O  0.39553121  0.35334952  0.02799457    -0.76400
O316        O  0.37699625  0.39329035  0.99174824    -0.76600
C317        C  0.35532430  0.38345989  0.98017935     1.04000
O318        O  0.34783144  0.43743793  0.00890472    -0.83900
O319        O  0.31914814  0.43008049  0.05851215    -0.81000
C320        C  0.31085372  0.41929215  0.08111632     0.99600
O321        O  0.31391628  0.39326826  0.08558704    -0.81000
O322        O  0.36935704  0.38906215  0.09838221    -0.83600
C323        C  0.39458581  0.39540811  0.09381354     1.04000
O324        O  0.40495910  0.39435531  0.06958202    -0.76400
O325        O  0.38590603  0.43570240  0.03356547    -0.76600
C326        C  0.36958449  0.44914707  0.01769610     1.04000
Cr327      Cr  0.32572809  0.40657145  0.02577405     1.93700
Cr328      Cr  0.34483436  0.36782495  0.07244394     1.93200
Cr329      Cr  0.38804489  0.39389963  0.03175035     1.39100
O330        O  0.35330776  0.38937475  0.04357460    -1.21700
O331        O  0.34893900  0.41144564  0.77054044    -0.83900
O332        O  0.38585594  0.44239390  0.74060370    -0.81000
C333        C  0.40004074  0.45241509  0.72096339     0.99500
O334        O  0.39595309  0.44425457  0.69602804    -0.81000
O335        O  0.40774603  0.38641565  0.69449811    -0.83600
C336        C  0.40485344  0.36074662  0.69989896     1.04100
O337        O  0.38108383  0.35117389  0.70669575    -0.76400
O338        O  0.36882272  0.37208035  0.75821072    -0.76600
C339        C  0.36197133  0.38928879  0.77670212     1.04000
O340        O  0.30598665  0.42438101  0.73103530    -0.83900
O341        O  0.34221846  0.45966849  0.70306054    -0.81000
C342        C  0.33764848  0.45558638  0.67738001     0.99600
O343        O  0.34495704  0.43287103  0.66628479    -0.81000
O344        O  0.35864231  0.37630254  0.66146869    -0.83600
C345        C  0.33602281  0.36334303  0.66658072     1.04000
O346        O  0.32451799  0.36552590  0.68996045    -0.76400
O347        O  0.31134289  0.38053304  0.74290525    -0.76600
C348        C  0.29590397  0.40195419  0.74046985     1.04000
Cr349      Cr  0.34656479  0.43235635  0.73458217     1.93700
Cr350      Cr  0.37545676  0.40960079  0.68193697     1.93200
Cr351      Cr  0.34720453  0.36988307  0.72354864     1.39100
O352        O  0.35653088  0.40395406  0.71338171    -1.21700
O353        O  0.08720150  0.23563549  0.86905717    -0.83900
O354        O  0.04505342  0.27463650  0.87343858    -0.81000
C355        C  0.04891057  0.27917676  0.89897881     0.99500
O356        O  0.06913250  0.29445756  0.90655174    -0.81000
O357        O  0.12260847  0.31965220  0.90424898    -0.83600
C358        C  0.14131855  0.30164222  0.90979040     1.04100
O359        O  0.14441697  0.28083156  0.89410248    -0.76400
O360        O  0.13111104  0.24040569  0.85643615    -0.76600
C361        C  0.11172357  0.22603688  0.86719767     1.04000
O362        O  0.09663342  0.25233436  0.81324973    -0.83900
O363        O  0.06064552  0.29648078  0.82052657    -0.81000
C364        C  0.04946294  0.31808069  0.83053109     0.99600
O365        O  0.05418767  0.32505630  0.85564063    -0.81000
O366        O  0.10802000  0.34474872  0.85144524    -0.83600
C367        C  0.13359137  0.34296151  0.84487593     1.04000
O368        O  0.14763488  0.32120568  0.85018203    -0.76400
O369        O  0.13209159  0.28078194  0.81194601    -0.76600
C370        C  0.11677179  0.26294519  0.80012373     1.04000
Cr371      Cr  0.07438017  0.26661042  0.84514995     1.93700
Cr372      Cr  0.08922998  0.31872515  0.87829791     1.93200
Cr373      Cr  0.13593010  0.28151498  0.85359257     1.39100
O374        O  0.10008380  0.28907109  0.85904005    -1.21700
O375        O  0.11816268  0.01827387  0.84199339    -0.83900
O376        O  0.15073071  0.98593546  0.80984490    -0.81000
C377        C  0.16392866  0.96575912  0.79976688     0.99500
O378        O  0.15982142  0.94112867  0.80918518    -0.81000
O379        O  0.17372424  0.93954783  0.86704266    -0.83600
C380        C  0.17213275  0.94575473  0.89264294     1.04100
O381        O  0.14914875  0.95392610  0.90288505    -0.76400
O382        O  0.14072033  0.00566757  0.87986319    -0.76600
C383        C  0.13353059  0.02420593  0.86265613     1.04000
O384        O  0.07260615  0.98022963  0.83325371    -0.83900
O385        O  0.10401643  0.95034703  0.79635385    -0.81000
C386        C  0.09797181  0.92533729  0.80228298     0.99600
O387        O  0.10769465  0.91401181  0.82398495    -0.81000
O388        O  0.12200305  0.90979305  0.87942831    -0.83600
C389        C  0.09962113  0.91699446  0.89204929     1.04000
O390        O  0.09150004  0.94191048  0.89163244    -0.76400
O391        O  0.08178187  0.99518232  0.87520663    -0.76600
C392        C  0.06468059  0.99200567  0.85527126     1.04000
Cr393      Cr  0.11227368  0.98201600  0.82240784     1.93700
Cr394      Cr  0.13986535  0.92855772  0.84528797     1.93200
Cr395      Cr  0.11640792  0.97314588  0.88489277     1.39100
O396        O  0.12304483  0.96113658  0.85081774    -1.21700
O397        O  0.92421900  0.73341113  0.64364529    -0.83900
O398        O  0.96677015  0.77134541  0.63939524    -0.81000
C399        C  0.96381944  0.77802715  0.61408684     0.99500
O400        O  0.94386212  0.79376937  0.60661787    -0.81000
O401        O  0.89026762  0.81759009  0.60723829    -0.83600
C402        C  0.87338816  0.79835016  0.60034932     1.04100
O403        O  0.87027362  0.77760022  0.61623948    -0.76400
O404        O  0.88048456  0.73828537  0.65619922    -0.76600
C405        C  0.89964145  0.72407069  0.64486988     1.04000
O406        O  0.91350989  0.75155659  0.69979379    -0.83900
O407        O  0.95181732  0.79354141  0.69245534    -0.81000
C408        C  0.96321289  0.81519627  0.68272360     0.99600
O409        O  0.95760920  0.82311704  0.65797159    -0.81000
O410        O  0.90318014  0.84223585  0.66123963    -0.83600
C411        C  0.87716787  0.84065388  0.66553893     1.04000
O412        O  0.86361566  0.81938440  0.65808798    -0.76400
O413        O  0.87810473  0.78057719  0.69860672    -0.76600
C414        C  0.89352812  0.76378943  0.71199823     1.04000
Cr415      Cr  0.93709989  0.76417352  0.66773388     1.93700
Cr416      Cr  0.92294654  0.81702026  0.63450765     1.93200
Cr417      Cr  0.87592285  0.77960965  0.65703425     1.39100
O418        O  0.91194482  0.78707114  0.65317270    -1.21700
O419        O  0.89803289  0.51737224  0.66462878    -0.83900
O420        O  0.86561149  0.48670964  0.69914192    -0.81000
C421        C  0.85180296  0.46699090  0.70948282     0.99500
O422        O  0.85528802  0.44218199  0.70069427    -0.81000
O423        O  0.84008653  0.44005938  0.64333363    -0.83600
C424        C  0.84163727  0.44537262  0.61747132     1.04100
O425        O  0.86477232  0.45209666  0.60662352    -0.76400
O426        O  0.87518351  0.50433939  0.62716518    -0.76600
C427        C  0.88229302  0.52302919  0.64410371     1.04000
O428        O  0.94341563  0.47858044  0.67346571    -0.83900
O429        O  0.91146035  0.45036271  0.71195507    -0.81000
C430        C  0.91672427  0.42503312  0.70697910     0.99600
O431        O  0.90637786  0.41341176  0.68584281    -0.81000
O432        O  0.88995356  0.40807306  0.63124636    -0.83600
C433        C  0.91237994  0.41344553  0.61807831     1.04000
O434        O  0.92203777  0.43780731  0.61737543    -0.76400
O435        O  0.93360428  0.49186532  0.63104817    -0.76600
C436        C  0.95111502  0.48931350  0.65070609     1.04000
Cr437      Cr  0.90371469  0.48152153  0.68524163     1.93700
Cr438      Cr  0.87403233  0.42839418  0.66484146     1.93200
Cr439      Cr  0.89834993  0.47061448  0.62313689     1.39100
O440        O  0.89177123  0.46017997  0.65781346    -1.21700
O441        O  0.98650828  0.33697747  0.40196092    -0.83900
O442        O  0.01468205  0.30034280  0.36984298    -0.81000
C443        C  0.03357447  0.28834806  0.35625884     0.99500
O444        O  0.05898738  0.29527180  0.35977059    -0.81000
O445        O  0.06257366  0.35215527  0.34357620    -0.83600
C446        C  0.05875526  0.37823846  0.34518038     1.04100
O447        O  0.05556412  0.38984427  0.36860984    -0.76400
O448        O  0.00209194  0.37460515  0.38071770    -0.76600
C449        C  0.98225574  0.35876727  0.38746517     1.04000
O450        O  0.02449322  0.32525249  0.44729955    -0.83900
O451        O  0.05111667  0.28598898  0.41613793    -0.81000
C452        C  0.07652919  0.29094350  0.42199793     0.99600
O453        O  0.08940880  0.31017383  0.40971493    -0.81000
O454        O  0.09791934  0.36339840  0.39153276    -0.83600
C455        C  0.09459014  0.37594124  0.41462778     1.04000
O456        O  0.07072417  0.37754909  0.42552992    -0.76400
O457        O  0.01550643  0.36887264  0.43807973    -0.76600
C458        C  0.01581922  0.34875204  0.45510796     1.04000
Cr459      Cr  0.02098755  0.31395390  0.40780430     1.93700
Cr460      Cr  0.07492449  0.33078412  0.37717599     1.93200
Cr461      Cr  0.03674795  0.37515179  0.40272987     1.39100
O462        O  0.04404662  0.33988187  0.39567797    -1.21700
O463        O  0.76877362  0.36848136  0.42514554    -0.83900
O464        O  0.72623828  0.36945977  0.46434563    -0.81000
C465        C  0.71832402  0.39430636  0.46127104     0.99500
O466        O  0.70381449  0.40137794  0.44020494    -0.81000
O467        O  0.68546345  0.39974629  0.38413045    -0.83600
C468        C  0.70551722  0.40765295  0.36847903     1.04100
O469        O  0.72759775  0.39320712  0.36742047    -0.76400
O470        O  0.76785671  0.35493203  0.38160468    -0.76600
C471        C  0.78020821  0.36704870  0.40141968     1.04000
O472        O  0.75488065  0.31177342  0.41319230    -0.83900
O473        O  0.70903146  0.31582156  0.44760599    -0.81000
C474        C  0.68597140  0.32405133  0.45747521     0.99600
O475        O  0.67655683  0.34805100  0.45082026    -0.81000
O476        O  0.66320004  0.34375211  0.39478645    -0.83600
C477        C  0.66776764  0.33952420  0.36914947     1.04000
O478        O  0.68910530  0.34957631  0.35758753    -0.76400
O479        O  0.72790796  0.31074211  0.37645412    -0.76600
C480        C  0.74456610  0.29851747  0.39298966     1.04000
Cr481      Cr  0.73810489  0.34247715  0.43547754     1.93700
Cr482      Cr  0.68444274  0.37226596  0.41685413     1.93200
Cr483      Cr  0.72727538  0.35232907  0.37348958     1.39100
O484        O  0.71654951  0.35586754  0.40860860    -1.21700
O485        O  0.86133651  0.08168490  0.22859782    -0.83900
O486        O  0.89023161  0.04603525  0.26048771    -0.81000
C487        C  0.90487153  0.03675725  0.28013835     0.99500
O488        O  0.90222529  0.04666782  0.30466522    -0.81000
O489        O  0.91639943  0.10411026  0.30581444    -0.83600
C490        C  0.91474739  0.13000875  0.30106467     1.04100
O491        O  0.89148480  0.14085858  0.29474212    -0.76400
O492        O  0.88400989  0.11884306  0.24284804    -0.76600
C493        C  0.87838603  0.10146361  0.22408586     1.04000
O494        O  0.81359280  0.07479975  0.26585014    -0.83900
O495        O  0.84266009  0.03606716  0.29614446    -0.81000
C496        C  0.83949924  0.04075074  0.32194840     0.99600
O497        O  0.85125478  0.06114030  0.33348336    -0.81000
O498        O  0.86535114  0.11641504  0.33725103    -0.83600
C499        C  0.84282833  0.12938506  0.33092792     1.04000
O500        O  0.83387731  0.12966475  0.30621289    -0.76400
O501        O  0.82518307  0.11605606  0.25113852    -0.76600
C502        C  0.80727044  0.09684906  0.25309112     1.04000
Cr503      Cr  0.85283003  0.06169607  0.26456519     1.93700
Cr504      Cr  0.88272642  0.08257022  0.31781090     1.93200
Cr505      Cr  0.85903155  0.12374175  0.27471974     1.39100
O506        O  0.86498293  0.08908006  0.28583633    -1.21700
O507        O  0.85584951  0.09067775  0.02154790    -0.83900
O508        O  0.81966812  0.12617161  0.99632775    -0.81000
C509        C  0.80682213  0.14022782  0.97827727     0.99500
O510        O  0.81323813  0.13766333  0.95259920    -0.81000
O511        O  0.87122431  0.15119090  0.94652887    -0.83600
C512        C  0.89745911  0.14827548  0.94917170     1.04100
O513        O  0.90804399  0.12416716  0.95195818    -0.76400
O514        O  0.89346603  0.11112827  0.00516099    -0.76600
C515        C  0.87780121  0.10488502  0.02526003     1.04000
O516        O  0.84028115  0.04780636  0.98290714    -0.83900
O517        O  0.80118215  0.08245728  0.95940840    -0.81000
C518        C  0.80357681  0.07843674  0.93341096     0.99600
O519        O  0.82405003  0.08845520  0.92017328    -0.81000
O520        O  0.87890125  0.10379273  0.91008481    -0.83600
C521        C  0.89184025  0.08066243  0.91253839     1.04000
O522        O  0.89273806  0.06833604  0.93572176    -0.76400
O523        O  0.88477675  0.05401021  0.99066348    -0.76600
C524        C  0.86355020  0.03831751  0.99077604     1.04000
Cr525      Cr  0.83113978  0.08769306  0.98818036     1.93700
Cr526      Cr  0.84749533  0.11906434  0.93456439     1.93200
Cr527      Cr  0.89213011  0.09001375  0.97025379     1.39100
O528        O  0.85685318  0.09907115  0.96440398    -1.21700
C529        C  0.90135502  0.13623444  0.15757604     0.14100
C530        C  0.90386684  0.11311811  0.14001822     0.01100
C531        C  0.90223180  0.08604262  0.15106540     0.16000
C532        C  0.89518729  0.08211749  0.17899771     0.25500
C533        C  0.89024765  0.10531123  0.19615905    -0.40900
C534        C  0.89468914  0.13239610  0.18562147     0.32500
C535        C  0.89879955  0.11676543  0.11021998     0.01100
F536        F  0.90438572  0.06352649  0.13406172    -0.13200
F537        F  0.88976240  0.15520514  0.20162335    -0.13700
C538        C  0.92034579  0.11440183  0.09058639     0.16000
C539        C  0.91376391  0.11260439  0.06222377     0.25500
C540        C  0.88555360  0.11253535  0.05371466    -0.40800
C541        C  0.86429885  0.11681897  0.07342810     0.32400
C542        C  0.87091680  0.11894978  0.10148460     0.14100
F543        F  0.94739856  0.11241336  0.09898631    -0.13200
F544        F  0.83697782  0.11772830  0.06566055    -0.13700
F545        F  0.93469216  0.10882546  0.04345076    -0.16000
F546        F  0.84992016  0.12112434  0.12046034    -0.14500
F547        F  0.90239452  0.16247461  0.14685305    -0.14500
F548        F  0.89163943  0.05574848  0.18882482    -0.16000
C549        C  0.76461674  0.23060762  0.35740754     0.14100
C550        C  0.77937057  0.21685667  0.37891790     0.01100
C551        C  0.77987071  0.22866312  0.40560629     0.16000
C552        C  0.76712780  0.25446652  0.41044600     0.25500
C553        C  0.75389605  0.26927102  0.38850222    -0.40900
C554        C  0.75192945  0.25656716  0.36214514     0.32500
C555        C  0.79567576  0.19120976  0.37287557     0.01100
F556        F  0.79311126  0.21535251  0.42693920    -0.13200
F557        F  0.73901587  0.26980303  0.34057147    -0.13700
C558        C  0.82505843  0.19124958  0.37515657     0.16000
C559        C  0.84087249  0.16905725  0.36441254     0.25500
C560        C  0.82744899  0.14672633  0.35113400    -0.40800
C561        C  0.79805026  0.14551127  0.35134641     0.32400
C562        C  0.78228856  0.16755310  0.36217127     0.14100
F563        F  0.83851082  0.21385276  0.38553871    -0.13200
F564        F  0.78461986  0.12378520  0.33920298    -0.13700
F565        F  0.86920628  0.17084995  0.36428767    -0.16000
F566        F  0.75394748  0.16650821  0.36082523    -0.14500
F567        F  0.76375912  0.21956630  0.33136546    -0.14500
F568        F  0.76818469  0.26513323  0.43664852    -0.16000
C569        C  0.02277771  0.21381683  0.33351737     0.14100
C570        C  0.99706044  0.21608655  0.31923778     0.01100
C571        C  0.98661634  0.24289683  0.31303933     0.16000
C572        C  0.00038217  0.26673145  0.32267773     0.25500
C573        C  0.02498446  0.26444079  0.33866704    -0.40900
C574        C  0.03665847  0.23779846  0.34309888     0.32500
C575        C  0.97946700  0.19100014  0.31345664     0.01100
F576        F  0.96175382  0.24603681  0.29966705    -0.13200
F577        F  0.05998976  0.23478579  0.35900765    -0.13700
C578        C  0.97077695  0.17355991  0.33556514     0.16000
C579        C  0.95101526  0.15244131  0.33107636     0.25500
C580        C  0.93924078  0.14854528  0.30453057    -0.40800
C581        C  0.94840269  0.16539385  0.28224255     0.32400
C582        C  0.96861129  0.18613716  0.28656857     0.14100
F583        F  0.97990589  0.17824089  0.36196591    -0.13200
F584        F  0.93722542  0.16221243  0.25638847    -0.13700
F585        F  0.94172481  0.13722649  0.35313928    -0.16000
F586        F  0.97701010  0.20204885  0.26462706    -0.14500
F587        F  0.03374367  0.18830147  0.33938904    -0.14500
F588        F  0.98855901  0.29213746  0.31806712    -0.16000
C589        C  0.85610585  0.38506098  0.41365700     0.14100
C590        C  0.86630680  0.38392947  0.38620253     0.01100
C591        C  0.84762993  0.38217653  0.36385553     0.16000
C592        C  0.81913853  0.37913787  0.36888705     0.25500
C593        C  0.80896506  0.37720278  0.39652243    -0.40900
C594        C  0.82751993  0.38179852  0.41885202     0.32500
C595        C  0.89620411  0.37913423  0.38131612     0.01100
F596        F  0.85726613  0.38144172  0.33720241    -0.13200
F597        F  0.81848125  0.38096580  0.44570233    -0.13700
C598        C  0.90533348  0.35197376  0.37525406     0.16000
C599        C  0.93376914  0.34573156  0.37511981     0.25500
C600        C  0.95338464  0.36664722  0.38083810    -0.40800
C601        C  0.94433458  0.39437199  0.38443039     0.32400
C602        C  0.91574755  0.40051642  0.38500053     0.14100
F603        F  0.88659030  0.33113685  0.37126255    -0.13200
F604        F  0.96297834  0.41501453  0.38963963    -0.13700
F605        F  0.94213776  0.31902000  0.37059434    -0.16000
F606        F  0.90709935  0.42695662  0.39034927    -0.14500
F607        F  0.87411387  0.38687122  0.43550000    -0.14500
F608        F  0.80178038  0.37648820  0.34660680    -0.16000
C609        C  0.79147470  0.46042713  0.55816744     0.14100
C610        C  0.77715902  0.43499130  0.55557525     0.01100
C611        C  0.78218355  0.41386570  0.57560678     0.16000
C612        C  0.80184703  0.41784813  0.59709453     0.25500
C613        C  0.81707921  0.44283613  0.59870621    -0.40900
C614        C  0.81141879  0.46416549  0.57923402     0.32500
C615        C  0.75917056  0.42973935  0.53058908     0.01100
F616        F  0.76946655  0.38869580  0.57330551    -0.13200
F617        F  0.82584796  0.48849086  0.58017497    -0.13700
C618        C  0.77041334  0.43267223  0.50354275     0.16000
C619        C  0.75483593  0.42508549  0.47999359     0.25500
C620        C  0.72789243  0.41388697  0.48289027    -0.40800
C621        C  0.71601532  0.41233129  0.50971964     0.32400
C622        C  0.73142037  0.42035783  0.53335245     0.14100
F623        F  0.79743958  0.44053609  0.50001734    -0.13200
F624        F  0.69035908  0.40077539  0.51320702    -0.13700
F625        F  0.76729492  0.42569455  0.45452905    -0.16000
F626        F  0.71969217  0.41771738  0.55902356    -0.14500
F627        F  0.78667733  0.48147656  0.53971751    -0.14500
F628        F  0.80758993  0.39650144  0.61493480    -0.16000
C629        C  0.92872517  0.36606265  0.55817699     0.14100
C630        C  0.95810511  0.36633147  0.55915202     0.01100
C631        C  0.97168931  0.37734964  0.58255529     0.16000
C632        C  0.95623421  0.39025727  0.60356713     0.25500
C633        C  0.92697727  0.39221418  0.60148695    -0.40900
C634        C  0.91316487  0.37891264  0.57935403     0.32500
C635        C  0.97444114  0.36099328  0.53365643     0.01100
F636        F  0.00005692  0.37783321  0.58374163    -0.13200
F637        F  0.88498980  0.38122220  0.57654033    -0.13700
C638        C  0.98412442  0.38384594  0.51815156     0.16000
C639        C  0.99867046  0.37979088  0.49331360     0.25500
C640        C  0.00383056  0.35260482  0.48337154    -0.40800
C641        C  0.99492869  0.32961822  0.49957167     0.32400
C642        C  0.98015739  0.33383715  0.52448772     0.14100
F643        F  0.97876512  0.41029192  0.52678162    -0.13200
F644        F  0.99951019  0.30307339  0.49086134    -0.13700
F645        F  0.00725061  0.40259676  0.47880337    -0.16000
F646        F  0.97114689  0.31152827  0.53947136    -0.14500
F647        F  0.91530802  0.35591789  0.53540279    -0.14500
F648        F  0.96996004  0.40293452  0.62483128    -0.16000
C649        C  0.85874001  0.65946683  0.62658515     0.14100
C650        C  0.88006018  0.63945443  0.62661604     0.01100
C651        C  0.90809459  0.64774940  0.62818964     0.16000
C652        C  0.91475141  0.67573926  0.63209559     0.25500
C653        C  0.89328177  0.69569355  0.63491753    -0.40900
C654        C  0.86527804  0.68752466  0.63052741     0.32500
C655        C  0.87345895  0.60986211  0.62994671     0.01100
F656        F  0.92890041  0.62838642  0.62811531    -0.13200
F657        F  0.84412158  0.70648344  0.63109904    -0.13700
C658        C  0.87471861  0.59178161  0.60710326     0.16000
C659        C  0.87509177  0.56297217  0.61150998     0.25500
C660        C  0.87470557  0.55222235  0.63888341    -0.40800
C661        C  0.87126516  0.57043950  0.66154175     0.32400
C662        C  0.87053494  0.59912769  0.65704789     0.14100
F663        F  0.87756652  0.60206714  0.58082472    -0.13200
F664        F  0.87019723  0.56052565  0.68813171    -0.13700
F665        F  0.87856678  0.54580776  0.58929649    -0.16000
F666        F  0.86923491  0.61654997  0.67931038    -0.14500
F667        F  0.83158159  0.65160906  0.62431155    -0.14500
F668        F  0.94204458  0.68284518  0.63513144    -0.16000
C669        C  0.01652510  0.86965254  0.70540939     0.14100
C670        C  0.02218976  0.86158990  0.73306802     0.01100
C671        C  0.00886018  0.83785673  0.74399585     0.16000
C672        C  0.98994955  0.82267223  0.72770748     0.25500
C673        C  0.98380870  0.83095123  0.70000708    -0.40900
C674        C  0.99767335  0.85453149  0.68903562     0.32500
C675        C  0.04192348  0.87800545  0.75047482     0.01100
F676        F  0.01371597  0.82966845  0.77074140    -0.13200
F677        F  0.99324002  0.86302156  0.66232900    -0.13700
C678        C  0.03724188  0.90661897  0.75507329     0.16000
C679        C  0.05585848  0.92214523  0.77134125     0.25500
C680        C  0.07928183  0.90925693  0.78372707    -0.40800
C681        C  0.08392562  0.88063304  0.77920926     0.32400
C682        C  0.06554239  0.86520947  0.76257392     0.14100
F683        F  0.01415440  0.91937229  0.74445077    -0.13200
F684        F  0.10660830  0.86769602  0.79045937    -0.13700
F685        F  0.05033961  0.94955315  0.77592178    -0.16000
F686        F  0.07105496  0.83782210  0.75791558    -0.14500
F687        F  0.02965061  0.89204487  0.69403103    -0.14500
F688        F  0.97764791  0.79991431  0.73927536    -0.16000
C689        C  0.99865260  0.02313633  0.88565005     0.14100
C690        C  0.98328098  0.02981143  0.86157463     0.01100
C691        C  0.99413808  0.02315658  0.83525615     0.16000
C692        C  0.02034995  0.01013595  0.83306997     0.25500
C693        C  0.03607439  0.00379595  0.85728665    -0.40900
C694        C  0.02475205  0.01027603  0.88359293     0.32500
C695        C  0.95578672  0.04340783  0.86488972     0.01100
F696        F  0.97946397  0.02939676  0.81177194    -0.13200
F697        F  0.03885592  0.00409057  0.90745273    -0.13700
C698        C  0.95394411  0.07263691  0.86592547     0.16000
C699        C  0.93068742  0.08548455  0.87829960     0.25500
C700        C  0.90930256  0.06910083  0.88999739    -0.40800
C701        C  0.90992738  0.04001626  0.88617077     0.32400
C702        C  0.93299454  0.02727632  0.87361044     0.14100
F703        F  0.97598082  0.08850435  0.85779927    -0.13200
F704        F  0.88951019  0.02373231  0.89720058    -0.13700
F705        F  0.93092758  0.11352155  0.88220755    -0.16000
F706        F  0.93446731  0.99899878  0.87268540    -0.14500
F707        F  0.98833441  0.02933843  0.91130176    -0.14500
F708        F  0.03061970  0.00452580  0.80726572    -0.16000
C709        C  0.98066702  0.26049846  0.93328218     0.14100
C710        C  0.98419492  0.23153126  0.93697218     0.01100
C711        C  0.01103089  0.21999798  0.93323083     0.16000
C712        C  0.03334242  0.23669784  0.92422779     0.25500
C713        C  0.02939287  0.26527763  0.91860009    -0.40900
C714        C  0.00300441  0.27716843  0.92394964     0.32500
C715        C  0.95972074  0.21284563  0.94212899     0.01100
F716        F  0.01513606  0.19207813  0.93603003    -0.13200
F717        F  0.99831392  0.30451220  0.91810709    -0.13700
C718        C  0.93793730  0.21101808  0.92235473     0.16000
C719        C  0.91660620  0.19108954  0.92538100     0.25500
C720        C  0.91677363  0.17246902  0.94812023    -0.40800
C721        C  0.93803235  0.17488248  0.96831872     0.32400
C722        C  0.95918278  0.19490879  0.96543390     0.14100
F723        F  0.93830640  0.22735349  0.89914542    -0.13200
F724        F  0.93858570  0.15738348  0.99068035    -0.13700
F725        F  0.89699400  0.18864159  0.90504577    -0.16000
F726        F  0.97954269  0.19637491  0.98513172    -0.14500
F727        F  0.95522996  0.27240310  0.93749429    -0.14500
F728        F  0.05830034  0.22439164  0.91865251    -0.16000
C729        C  0.95421017  0.36500174  0.74306132     0.14100
C730        C  0.97156393  0.37931903  0.76174748     0.01100
C731        C  0.97047208  0.40849865  0.76284721     0.16000
C732        C  0.95246505  0.42331164  0.74526343     0.25500
C733        C  0.93508440  0.40911769  0.72623845    -0.40900
C734        C  0.93608722  0.37972988  0.72544069     0.32500
C735        C  0.99151830  0.36389233  0.77948787     0.01100
F736        F  0.98754350  0.42270740  0.78039440    -0.13200
F737        F  0.91947726  0.36515243  0.70776737    -0.13700
C738        C  0.01308657  0.34834640  0.76717670     0.16000
C739        C  0.03213468  0.33375305  0.78381287     0.25500
C740        C  0.02990064  0.33447441  0.81312126    -0.40800
C741        C  0.00846866  0.35046140  0.82542480     0.32400
C742        C  0.98940013  0.36502513  0.80868331     0.14100
F743        F  0.01596311  0.34771892  0.73898431    -0.13200
F744        F  0.00543066  0.35138239  0.85358849    -0.13700
F745        F  0.05308330  0.31934396  0.77120256    -0.16000
F746        F  0.96849500  0.37980019  0.82092666    -0.14500
F747        F  0.95475762  0.33669783  0.74201630    -0.14500
F748        F  0.95277402  0.45160951  0.74635299    -0.16000
C749        C  0.13737910  0.09267111  0.89984928     0.14100
C750        C  0.13757163  0.11093692  0.87700725     0.01100
C751        C  0.14109735  0.10068332  0.84989338     0.16000
C752        C  0.14232408  0.07207998  0.84538878     0.25500
C753        C  0.13996292  0.05351437  0.86801072    -0.40900
C754        C  0.13878803  0.06395494  0.89542623     0.32500
C755        C  0.13082670  0.14038333  0.88064014     0.01100
F756        F  0.14138125  0.11836639  0.82766734    -0.13200
F757        F  0.13634234  0.04646945  0.91765632    -0.13700
C758        C  0.15223870  0.16009558  0.88130765     0.16000
C759        C  0.14582187  0.18834731  0.87898887     0.25500
C760        C  0.11782532  0.19707189  0.87543962    -0.40800
C761        C  0.09625821  0.17718429  0.87672945     0.32400
C762        C  0.10281045  0.14896013  0.87930017     0.14100
F763        F  0.17939629  0.15183026  0.88258940    -0.13200
F764        F  0.06905119  0.18468593  0.87333199    -0.13700
F765        F  0.16713169  0.20700849  0.87895142    -0.16000
F766        F  0.08195692  0.12980931  0.87845279    -0.14500
F767        F  0.13402089  0.10260856  0.92613919    -0.14500
F768        F  0.14421314  0.06246952  0.81881528    -0.16000
C769        C  0.22543861  0.37302367  0.76234734     0.14100
C770        C  0.21401428  0.39535253  0.77754259     0.01100
C771        C  0.22840000  0.42086922  0.77808264     0.16000
C772        C  0.25430320  0.42367235  0.76451932     0.25500
C773        C  0.26653815  0.40076276  0.75067963    -0.40900
C774        C  0.25148184  0.37561308  0.74925022     0.32500
C775        C  0.18939299  0.39028675  0.79581367     0.01100
F776        F  0.21784477  0.44271977  0.79266834    -0.13200
F777        F  0.26235931  0.35318449  0.73579736    -0.13700
C778        C  0.19324665  0.38870547  0.82487311     0.16000
C779        C  0.17290863  0.37631924  0.84182700     0.25500
C780        C  0.14828205  0.36560758  0.83007157    -0.40800
C781        C  0.14292547  0.37018474  0.80156232     0.32400
C782        C  0.16348901  0.38225230  0.78445686     0.14100
F783        F  0.21795366  0.39639962  0.83645216    -0.13200
F784        F  0.11918181  0.36016474  0.78976640    -0.13700
F785        F  0.17837237  0.37237436  0.86938734    -0.16000
F786        F  0.15899404  0.38415337  0.75653101    -0.14500
F787        F  0.21216962  0.34802844  0.76171888    -0.14500
F788        F  0.26826368  0.44818605  0.76661286    -0.16000
C789        C  0.25537244  0.31297044  0.98648521     0.14100
C790        C  0.22775845  0.32060881  0.99360143     0.01100
C791        C  0.22340784  0.33566360  0.01840361     0.16000
C792        C  0.24616644  0.34469757  0.03448125     0.25500
C793        C  0.27382311  0.33830191  0.02659367    -0.40900
C794        C  0.27815389  0.32163898  0.00289664     0.32500
C795        C  0.20393937  0.31514993  0.97401231     0.01100
F796        F  0.19708112  0.34257923  0.02650928    -0.13200
F797        F  0.30456073  0.31608299  0.99408603    -0.13700
C798        C  0.19819665  0.28807332  0.96437356     0.16000
C799        C  0.17714952  0.28348941  0.94441205     0.25500
C800        C  0.16117603  0.30589751  0.93359272    -0.40800
C801        C  0.16637722  0.33288630  0.94398623     0.32400
C802        C  0.18750375  0.33742775  0.96381482     0.14100
F803        F  0.21307727  0.26597273  0.97423673    -0.13200
F804        F  0.15208039  0.35527267  0.93388263    -0.13700
F805        F  0.17260574  0.25703761  0.93550265    -0.16000
F806        F  0.19281779  0.36396497  0.97203140    -0.14500
F807        F  0.26050315  0.29898568  0.96243556    -0.14500
F808        F  0.24126740  0.36105504  0.05705184    -0.16000
C809        C  0.35938967  0.35095954  0.84489363     0.14100
C810        C  0.36596842  0.37249200  0.86335009     0.01100
C811        C  0.37390917  0.39876844  0.85318839     0.16000
C812        C  0.37406382  0.40388625  0.82461496     0.25500
C813        C  0.36663112  0.38262229  0.80603200    -0.40900
C814        C  0.35997152  0.35590976  0.81622427     0.32500
C815        C  0.36280798  0.36859016  0.89334634     0.01100
F816        F  0.38013234  0.41979481  0.87105631    -0.13200
F817        F  0.35202430  0.33530081  0.79858046    -0.13700
C818        C  0.38661002  0.36768113  0.91022403     0.16000
C819        C  0.38396471  0.37026821  0.93895685     0.25500
C820        C  0.35737108  0.37441331  0.95101667    -0.40800
C821        C  0.33333271  0.37272968  0.93414001     0.32400
C822        C  0.33611725  0.36995005  0.90534127     0.14100
F823        F  0.41248360  0.36600072  0.89866134    -0.13200
F824        F  0.30732137  0.37583996  0.94509226    -0.13700
F825        F  0.40757496  0.37008006  0.95474471    -0.16000
F826        F  0.31293618  0.37083946  0.88896623    -0.14500
F827        F  0.35145420  0.32559295  0.85472597    -0.14500
F828        F  0.38065503  0.42977411  0.81509537    -0.16000
C829        C  0.82966077  0.47394529  0.78461946     0.14100
C830        C  0.81538401  0.49971094  0.78359072     0.01100
C831        C  0.80838474  0.51102568  0.75736929     0.16000
C832        C  0.81765563  0.49831433  0.73280835     0.25500
C833        C  0.83391658  0.47383053  0.73379781    -0.40900
C834        C  0.83878573  0.46103011  0.75987558     0.32500
C835        C  0.81132991  0.51707222  0.80908825     0.01100
F836        F  0.79488377  0.53592803  0.75554819    -0.13200
F837        F  0.85490039  0.43770863  0.76162262    -0.13700
C838        C  0.83474524  0.52681683  0.82387711     0.16000
C839        C  0.83190316  0.54768933  0.84414595     0.25500
C840        C  0.80548171  0.55943494  0.85010898    -0.40800
C841        C  0.78182667  0.54842917  0.83638325     0.32400
C842        C  0.78474228  0.52746780  0.81618405     0.14100
F843        F  0.86077874  0.51762027  0.81721259    -0.13200
F844        F  0.75582889  0.55848120  0.84186679    -0.13700
F845        F  0.85536683  0.55772105  0.85644131    -0.16000
F846        F  0.76164895  0.51799063  0.80277127    -0.14500
F847        F  0.83621446  0.46218838  0.80962275    -0.14500
F848        F  0.81281417  0.51128734  0.70801204    -0.16000
C849        C  0.88228463  0.68506286  0.81515690     0.14100
C850        C  0.87475447  0.71322625  0.81854229     0.01100
C851        C  0.86175789  0.72163419  0.84344804     0.16000
C852        C  0.85494966  0.70174779  0.86392637     0.25500
C853        C  0.86051802  0.67325597  0.85937353    -0.40900
C854        C  0.87503005  0.66523990  0.83529744     0.32500
C855        C  0.87901161  0.73274834  0.79486417     0.01100
F856        F  0.85446432  0.74874294  0.84729555    -0.13200
F857        F  0.87998654  0.63782731  0.83020060    -0.13700
C858        C  0.85620149  0.74160353  0.77842704     0.16000
C859        C  0.86071598  0.75369765  0.75203332     0.25500
C860        C  0.88811665  0.75682272  0.74172983    -0.40800
C861        C  0.91078995  0.74999512  0.75930499     0.32400
C862        C  0.90624682  0.73821110  0.78562188     0.14100
F863        F  0.82961813  0.73646035  0.78693354    -0.13200
F864        F  0.93751219  0.75359379  0.75048443    -0.13700
F865        F  0.83835706  0.76003464  0.73568752    -0.16000
F866        F  0.92852411  0.73045895  0.80147111    -0.14500
F867        F  0.89465180  0.67640927  0.79118704    -0.14500
F868        F  0.84045456  0.70989941  0.88689011    -0.16000
C869        C  0.47246280  0.55799431  0.77730499     0.14100
C870        C  0.44484494  0.55076902  0.77040223     0.01100
C871        C  0.42279676  0.56676172  0.78148505     0.16000
C872        C  0.42811739  0.58883947  0.79980678     0.25500
C873        C  0.45572132  0.59538013  0.80787087    -0.40900
C874        C  0.47788324  0.58002585  0.79576910     0.32500
C875        C  0.43861283  0.52540590  0.75351463     0.01100
F876        F  0.39583454  0.55993509  0.77590354    -0.13200
F877        F  0.50487968  0.58572969  0.80234609    -0.13700
C878        C  0.44708667  0.49885714  0.76303552     0.16000
C879        C  0.43677232  0.47464151  0.75037010     0.25500
C880        C  0.41818523  0.47644041  0.72766369    -0.40800
C881        C  0.41150716  0.50291110  0.71672547     0.32400
C882        C  0.42151822  0.52717054  0.72961387     0.14100
F883        F  0.46343869  0.49630506  0.78609137    -0.13200
F884        F  0.39293332  0.50538488  0.69539970    -0.13700
F885        F  0.44338894  0.44936954  0.76149590    -0.16000
F886        F  0.41320635  0.55245036  0.71971628    -0.14500
F887        F  0.49424745  0.54332770  0.76655333    -0.14500
F888        F  0.40595617  0.60272586  0.81082328    -0.16000
C889        C  0.36030013  0.51969202  0.98226852     0.14100
C890        C  0.38805262  0.52713955  0.97663798     0.01100
C891        C  0.40983230  0.51066730  0.98775305     0.16000
C892        C  0.40397683  0.48628926  0.00299891     0.25500
C893        C  0.37614910  0.47770601  0.00708888    -0.40900
C894        C  0.35436797  0.49524013  0.99728844     0.32500
C895        C  0.39443150  0.54955973  0.95609088     0.01100
F896        F  0.43687214  0.51750789  0.98257303    -0.13200
F897        F  0.32718226  0.48814290  0.00125737    -0.13700
C898        C  0.39142576  0.57804381  0.96258249     0.16000
C899        C  0.40058509  0.59867700  0.94366693     0.25500
C900        C  0.41268563  0.59097395  0.91800449    -0.40800
C901        C  0.41352668  0.56247306  0.91087328     0.32400
C902        C  0.40463659  0.54208154  0.92972361     0.14100
F903        F  0.38105287  0.58579153  0.98776008    -0.13200
F904        F  0.42419079  0.55420337  0.88594832    -0.13700
F905        F  0.39957044  0.62590312  0.95130483    -0.16000
F906        F  0.40681152  0.51478268  0.92254573    -0.14500
F907        F  0.33891091  0.53512920  0.97164633    -0.14500
F908        F  0.42556146  0.47006443  0.01186271    -0.16000
C909        C  0.60211953  0.62092589  0.84736293     0.14100
C910        C  0.62038918  0.63815907  0.86217347     0.01100
C911        C  0.61198853  0.66521731  0.86972610     0.16000
C912        C  0.58415758  0.67319237  0.86667987     0.25500
C913        C  0.56485913  0.65402341  0.85605126    -0.40900
C914        C  0.57439170  0.62905622  0.84396298     0.32500
C915        C  0.64698138  0.62717098  0.87258632     0.01100
F916        F  0.63011014  0.68274636  0.88260113    -0.13200
F917        F  0.55603822  0.61090043  0.83237167    -0.13700
C918        C  0.66770067  0.61861147  0.85390239     0.16000
C919        C  0.69467830  0.61395093  0.86359676     0.25500
C920        C  0.70120388  0.61888545  0.89184287    -0.40800
C921        C  0.67965291  0.62338431  0.91111295     0.32400
C922        C  0.65248330  0.62743658  0.90144504     0.14100
F923        F  0.66255257  0.61757885  0.82604578    -0.13200
F924        F  0.68529261  0.62728971  0.93860459    -0.13700
F925        F  0.71509796  0.60787885  0.84484205    -0.16000
F926        F  0.63197516  0.63391611  0.91994864    -0.14500
F927        F  0.61020218  0.59504969  0.83914556    -0.14500
F928        F  0.57546556  0.69765135  0.87801552    -0.16000
C929        C  0.36737099  0.89237804  0.34699337     0.14100
C930        C  0.36954403  0.88229629  0.37441527     0.01100
C931        C  0.37122324  0.90077048  0.39676322     0.16000
C932        C  0.37417858  0.92914453  0.39160139     0.25500
C933        C  0.37565646  0.93914109  0.36387839    -0.40900
C934        C  0.37020448  0.92080571  0.34167716     0.32500
C935        C  0.37783496  0.85341536  0.37885733     0.01100
F936        F  0.37312747  0.89099637  0.42335014    -0.13200
F937        F  0.37036978  0.92979674  0.31475889    -0.13700
C938        C  0.40593189  0.84627495  0.37465136     0.16000
C939        C  0.41419128  0.81854749  0.37562379     0.25500
C940        C  0.39422986  0.79760295  0.38036824    -0.40800
C941        C  0.36651858  0.80515417  0.38725452     0.32400
C942        C  0.35835905  0.83308215  0.38633152     0.14100
F943        F  0.42511722  0.86619378  0.36842092    -0.13200
F944        F  0.34692261  0.78556512  0.39311862    -0.13700
F945        F  0.44146199  0.81218111  0.37076636    -0.16000
F946        F  0.33132516  0.84015045  0.39138693    -0.14500
F947        F  0.36555825  0.87436784  0.32525277    -0.14500
F948        F  0.37780773  0.94642044  0.41370067    -0.16000
C949        C  0.92226474  0.91928538  0.22362317     0.14100
C950        C  0.94518977  0.93471757  0.23347385     0.01100
C951        C  0.97220258  0.92682113  0.22506880     0.16000
C952        C  0.97618147  0.90502131  0.20594917     0.25500
C953        C  0.95311194  0.89074351  0.19439505    -0.40900
C954        C  0.92612662  0.89754927  0.20434519     0.32500
C955        C  0.94051821  0.96135701  0.24889450     0.01100
F956        F  0.99476364  0.94104801  0.23456219    -0.13200
F957        F  0.90316618  0.88452205  0.19407786    -0.13700
C958        C  0.92917912  0.96182194  0.27603818     0.16000
C959        C  0.92065115  0.98721254  0.28822079     0.25500
C960        C  0.92300890  0.01244677  0.27325138    -0.40800
C961        C  0.93634247  0.01200016  0.24699863     0.32400
C962        C  0.94498923  0.98681560  0.23501815     0.14100
F963        F  0.92511601  0.93757387  0.29015467    -0.13200
F964        F  0.93891571  0.03587666  0.23185565    -0.13700
F965        F  0.90762455  0.98676557  0.31338506    -0.16000
F966        F  0.95565797  0.98709098  0.20874976    -0.14500
F967        F  0.89587314  0.92659679  0.23114268    -0.14500
F968        F  0.00266955  0.89865425  0.19796784    -0.16000
C969        C  0.88255091  0.73800027  0.05420108     0.14100
C970        C  0.89117815  0.73505968  0.02645005     0.01100
C971        C  0.91453361  0.74965090  0.01674419     0.16000
C972        C  0.92910212  0.76735120  0.03463069     0.25500
C973        C  0.92039250  0.77078645  0.06262280    -0.40900
C974        C  0.89697277  0.75569917  0.07221196     0.32500
C975        C  0.87519861  0.71722974  0.00747822     0.01100
F976        F  0.92325678  0.74661617  0.98994876    -0.13200
F977        F  0.88809834  0.75775669  0.09903082    -0.13700
C978        C  0.85515829  0.72913886  0.98971255     0.16000
C979        C  0.83841654  0.71215948  0.97309681     0.25500
C980        C  0.84155906  0.68291266  0.97404311    -0.40800
C981        C  0.86245090  0.67116720  0.99131821     0.32400
C982        C  0.87904881  0.68827037  0.00798087     0.14100
F983        F  0.85152067  0.75723334  0.98887128    -0.13200
F984        F  0.86647300  0.64313867  0.99263674    -0.13700
F985        F  0.81929731  0.72442914  0.95599432    -0.16000
F986        F  0.89873081  0.67659077  0.02484609    -0.14500
F987        F  0.85995142  0.72379457  0.06376488    -0.14500
F988        F  0.95172871  0.78103776  0.02437892    -0.16000
C989        C  0.84614700  0.97275213  0.03191022     0.14100
C990        C  0.87236985  0.95963731  0.03332113     0.01100
C991        C  0.89494082  0.97098682  0.01844887     0.16000
C992        C  0.89171556  0.99580927  0.00332042     0.25500
C993        C  0.86574079  0.00974198  0.00270588    -0.40900
C994        C  0.84274705  0.99749881  0.01653758     0.32500
C995        C  0.87757012  0.93638332  0.05304284     0.01100
F996        F  0.92056336  0.95875556  0.01986447    -0.13200
F997        F  0.81745200  0.01044862  0.01687551    -0.13700
C998        C  0.87865691  0.90861483  0.04379561     0.16000
C999        C  0.88950857  0.88756923  0.06124407     0.25500
C1000       C  0.89973310  0.89428503  0.08793203    -0.40800
C1001       C  0.89649400  0.92173560  0.09779426     0.32400
C1002       C  0.88548146  0.94256686  0.08050873     0.14100
F1003       F  0.87098089  0.90229503  0.01728871    -0.13200
F1004       F  0.90588437  0.92878928  0.12358115    -0.13700
F1005       F  0.89260177  0.86135443  0.05106022    -0.16000
F1006       F  0.88461240  0.96927837  0.08982108    -0.14500
F1007       F  0.82420485  0.96230972  0.04652124    -0.14500
F1008       F  0.91427558  0.00666397  0.98999217    -0.16000
C1009       C  0.07952603  0.87081537  0.95250928     0.14100
C1010       C  0.05070962  0.87680878  0.95413137     0.01100
C1011       C  0.03772797  0.89103460  0.93202681     0.16000
C1012       C  0.05363184  0.90126241  0.90982708     0.25500
C1013       C  0.08291807  0.89770709  0.90943554    -0.40900
C1014       C  0.09559697  0.88125940  0.93026895     0.32500
C1015       C  0.03476027  0.87073198  0.97996105     0.01100
F1016       F  0.00982495  0.89635551  0.93273553    -0.13200
F1017       F  0.12377619  0.87775340  0.93066950    -0.13700
C1018       C  0.02516116  0.89273614  0.99686630     0.16000
C1019       C  0.01179604  0.88721312  0.02233870     0.25500
C1020       C  0.00782176  0.85954372  0.03130869    -0.40800
C1021       C  0.01633725  0.83757921  0.01361921     0.32400
C1022       C  0.02975814  0.84316105  0.98827773     0.14100
F1023       F  0.02985978  0.91962073  0.98922877    -0.13200
F1024       F  0.01193369  0.81056460  0.02099630    -0.13700
F1025       F  0.00421843  0.90889931  0.03886345    -0.16000
F1026       F  0.03806163  0.82161900  0.97190314    -0.14500
F1027       F  0.09244736  0.85684524  0.97360901    -0.14500
F1028       F  0.04068609  0.91659903  0.88967615    -0.16000
C1029       C  0.23094575  0.91169496  0.93395087     0.14100
C1030       C  0.23639690  0.93192634  0.95459721     0.01100
C1031       C  0.22265302  0.95789195  0.95254399     0.16000
C1032       C  0.20258815  0.96276616  0.93166808     0.25500
C1033       C  0.19645546  0.94218165  0.91171428    -0.40900
C1034       C  0.21148931  0.91694663  0.91253585     0.32500
C1035       C  0.25439824  0.92504903  0.97937977     0.01100
F1036       F  0.22827164  0.97843212  0.97113501    -0.13200
F1037       F  0.20581089  0.89650954  0.89385433    -0.13700
C1038       C  0.28104037  0.91283105  0.97605489     0.16000
C1039       C  0.29577089  0.90235780  0.99923256     0.25500
C1040       C  0.28468315  0.90467122  0.02632906    -0.40800
C1041       C  0.25899240  0.91844798  0.02990349     0.32400
C1042       C  0.24393098  0.92840871  0.00672467     0.14100
F1043       F  0.29230365  0.90990445  0.95021685    -0.13200
F1044       F  0.24706859  0.91961807  0.05559370    -0.13700
F1045       F  0.31999190  0.88810665  0.99503615    -0.16000
F1046       F  0.21796967  0.93913676  0.01091905    -0.14500
F1047       F  0.24305953  0.88608244  0.93549424    -0.14500
F1048       F  0.18876657  0.98755473  0.93119442    -0.16000
C1049       C  0.33012928  0.00714101  0.22658823     0.14100
C1050       C  0.31897762  0.98038443  0.23152057     0.01100
C1051       C  0.31445276  0.97208138  0.25948603     0.16000
C1052       C  0.32311793  0.98909265  0.28174979     0.25500
C1053       C  0.33688267  0.01446650  0.27658515    -0.40900
C1054       C  0.33937863  0.02373864  0.24881908     0.32500
C1055       C  0.31474062  0.96041288  0.20774550     0.01100
F1056       F  0.30399852  0.94643551  0.26537461    -0.13200
F1057       F  0.35297034  0.04792249  0.24311895    -0.13700
C1058       C  0.33660322  0.95511162  0.18869605     0.16000
C1059       C  0.33341867  0.93572509  0.16700334     0.25500
C1060       C  0.30837952  0.92055449  0.16387675    -0.40800
C1061       C  0.28635019  0.92614164  0.18283290     0.32400
C1062       C  0.28949091  0.94580713  0.20432988     0.14100
F1063       F  0.36173024  0.96784138  0.19179377    -0.13200
F1064       F  0.26174695  0.91220111  0.18105615    -0.13700
F1065       F  0.35542009  0.93117337  0.14969665    -0.16000
F1066       F  0.26770624  0.95051651  0.22187166    -0.14500
F1067       F  0.33351634  0.01661928  0.20006506    -0.14500
F1068       F  0.32079090  0.97937703  0.30831116    -0.16000
C1069       C  0.41330224  0.72867102  0.98621712     0.14100
C1070       C  0.39696500  0.75084498  0.97601681     0.01100
C1071       C  0.39545823  0.75576251  0.94717802     0.16000
C1072       C  0.40985256  0.73843010  0.92864990     0.25500
C1073       C  0.42620086  0.71609204  0.93879252    -0.40900
C1074       C  0.42804121  0.71154571  0.96776899     0.32500
C1075       C  0.38055170  0.76809161  0.99547873     0.01100
F1076       F  0.37976247  0.77715683  0.93699590    -0.13200
F1077       F  0.44359423  0.69015215  0.97818854    -0.13700
C1078       C  0.38940642  0.79498041  0.00262040     0.16000
C1079       C  0.37391315  0.81102730  0.02151563     0.25500
C1080       C  0.34910471  0.80041757  0.03346047    -0.40800
C1081       C  0.34026078  0.77338541  0.02576963     0.32400
C1082       C  0.35591780  0.75745388  0.00705933     0.14100
F1083       F  0.41320914  0.80557541  0.99142088    -0.13200
F1084       F  0.31631289  0.76223629  0.03608668    -0.13700
F1085       F  0.38324378  0.83692973  0.02795141    -0.16000
F1086       F  0.34685050  0.73162454  0.99992328    -0.14500
F1087       F  0.41489324  0.72363398  0.01408254    -0.14500
F1088       F  0.40837392  0.74392619  0.90085169    -0.16000
C1089       C  0.38959232  0.77541946  0.17407655     0.14100
C1090       C  0.39439448  0.78679458  0.20063288     0.01100
C1091       C  0.38926570  0.81526566  0.20511276     0.16000
C1092       C  0.37710331  0.83158435  0.18413014     0.25500
C1093       C  0.37035794  0.81977702  0.15819064    -0.40900
C1094       C  0.37783321  0.79193532  0.15282638     0.32500
C1095       C  0.39984563  0.76859719  0.22501348     0.01100
F1096       F  0.39364077  0.82658911  0.23068118    -0.13200
F1097       F  0.37085872  0.77995129  0.12816190    -0.13700
C1098       C  0.42665795  0.76652085  0.23672026     0.16000
C1099       C  0.43052330  0.75332330  0.26263105     0.25500
C1100       C  0.40743655  0.74253444  0.27745391    -0.40800
C1101       C  0.38081894  0.74345899  0.26485607     0.32400
C1102       C  0.37712696  0.75627199  0.23883426     0.14100
F1103       F  0.44884411  0.77834528  0.22361890    -0.13200
F1104       F  0.35818215  0.73257941  0.27803684    -0.13700
F1105       F  0.45653972  0.75276172  0.27397912    -0.16000
F1106       F  0.35102677  0.75802781  0.22774492    -0.14500
F1107       F  0.39429661  0.74789011  0.16944082    -0.14500
F1108       F  0.36968319  0.85832830  0.18989350    -0.16000
C1109       C  0.10831130  0.82605972  0.11638328     0.14100
C1110       C  0.11876570  0.85131760  0.12681232     0.01100
C1111       C  0.10123511  0.86914582  0.14203203     0.16000
C1112       C  0.07293089  0.86294972  0.14463146     0.25500
C1113       C  0.06201568  0.83893999  0.13200466    -0.40900
C1114       C  0.08002991  0.81986652  0.11896969     0.32500
C1115       C  0.14790451  0.85893047  0.12128541     0.01100
F1116       F  0.11112716  0.89335081  0.15277311    -0.13200
F1117       F  0.06986808  0.79670460  0.10630830    -0.13700
C1118       C  0.15780145  0.86009258  0.09368036     0.16000
C1119       C  0.18646631  0.86123386  0.08849833     0.25500
C1120       C  0.20532968  0.86136539  0.11100328    -0.40800
C1121       C  0.19502046  0.86411551  0.13842200     0.32400
C1122       C  0.16648390  0.86244655  0.14354624     0.14100
F1123       F  0.13975685  0.85837236  0.07184953    -0.13200
F1124       F  0.21268109  0.86642877  0.16050781    -0.13700
F1125       F  0.19565545  0.85981279  0.06172263    -0.16000
F1126       F  0.15726015  0.86188035  0.17034814    -0.14500
F1127       F  0.12530828  0.80800229  0.10261156    -0.14500
F1128       F  0.05580102  0.88122048  0.15793650    -0.16000
C1129       C  0.52480059  0.74858021  0.80978524     0.14100
C1130       C  0.51554500  0.77623887  0.81403317     0.01100
C1131       C  0.48790731  0.78043686  0.82343294     0.16000
C1132       C  0.47104820  0.75763475  0.83085958     0.25500
C1133       C  0.48094596  0.73013074  0.82799336    -0.40900
C1134       C  0.50741716  0.72588282  0.81601822     0.32500
C1135       C  0.53534373  0.80024269  0.81046111     0.01100
F1136       F  0.47766755  0.80665093  0.82681691    -0.13200
F1137       F  0.51783559  0.69963224  0.81352401    -0.13700
C1138       C  0.55227362  0.80232173  0.78647931     0.16000
C1139       C  0.57317883  0.82267927  0.78456694     0.25500
C1140       C  0.57696181  0.84226217  0.80600935    -0.40800
C1141       C  0.55912079  0.84133123  0.82928548     0.32400
C1142       C  0.53888849  0.82024916  0.83177285     0.14100
F1143       F  0.54879984  0.78438655  0.76490398    -0.13200
F1144       F  0.56253363  0.85969343  0.85051387    -0.13700
F1145       F  0.58993265  0.82316031  0.76170884    -0.16000
F1146       F  0.52394530  0.81849477  0.85580040    -0.14500
F1147       F  0.55163184  0.74331343  0.80212678    -0.14500
F1148       F  0.44593188  0.76243341  0.84318067    -0.16000
C1149       C  0.69586239  0.00581796  0.88285354     0.14100
C1150       C  0.72387935  0.00960794  0.87445891     0.01100
C1151       C  0.73398684  0.99467922  0.85129281     0.16000
C1152       C  0.71636280  0.97705914  0.83641938     0.25500
C1153       C  0.68872600  0.97287696  0.84516816    -0.40900
C1154       C  0.67858271  0.98708614  0.86862365     0.32500
C1155       C  0.74283475  0.02863845  0.88985382     0.01100
F1156       F  0.76118122  0.99658474  0.84338417    -0.13200
F1157       F  0.65175773  0.98348701  0.87715487    -0.13700
C1158       C  0.74563603  0.02654801  0.91901376     0.16000
C1159       C  0.76472366  0.04333135  0.93324180     0.25500
C1160       C  0.78206633  0.06201265  0.91851232    -0.40800
C1161       C  0.77910686  0.06420550  0.88934550     0.32400
C1162       C  0.75935808  0.04809616  0.87527707     0.14100
F1163       F  0.73075139  0.00740361  0.93370375    -0.13200
F1164       F  0.79522345  0.08204277  0.87431163    -0.13700
F1165       F  0.76695460  0.04037716  0.96136135    -0.16000
F1166       F  0.75640137  0.05156392  0.84727866    -0.14500
F1167       F  0.68504496  0.02066281  0.90439868    -0.14500
F1168       F  0.72655481  0.96341799  0.81380243    -0.16000
C1169       C  0.68669429  0.80138620  0.88308132     0.14100
C1170       C  0.71604004  0.80207526  0.88116815     0.01100
C1171       C  0.72937094  0.82682139  0.87327005     0.16000
C1172       C  0.71353440  0.84973367  0.86457163     0.25500
C1173       C  0.68421319  0.84789456  0.86303673    -0.40900
C1174       C  0.67076783  0.82428545  0.87401866     0.32500
C1175       C  0.73250311  0.77624416  0.88446602     0.01100
F1176       F  0.75770115  0.82802113  0.87194477    -0.13200
F1177       F  0.64250083  0.82199610  0.87264074    -0.13700
C1178       C  0.74253779  0.76208804  0.86079501     0.16000
C1179       C  0.75589028  0.73616251  0.86364026     0.25500
C1180       C  0.75914340  0.72409858  0.89021884    -0.40800
C1181       C  0.75048137  0.73924017  0.91394210     0.32400
C1182       C  0.73717042  0.76502811  0.91102951     0.14100
F1183       F  0.73805697  0.77273772  0.83485939    -0.13200
F1184       F  0.75413027  0.72862985  0.94002949    -0.13700
F1185       F  0.76376168  0.72206326  0.84039822    -0.16000
F1186       F  0.72814572  0.77875662  0.93408533    -0.14500
F1187       F  0.67351719  0.77765239  0.89118630    -0.14500
F1188       F  0.72687332  0.87266094  0.85456688    -0.16000
C1189       C  0.78015078  0.86799276  0.74112033     0.14100
C1190       C  0.79375353  0.89147584  0.73008104     0.01100
C1191       C  0.78156743  0.91792119  0.73354014     0.16000
C1192       C  0.75577381  0.92075006  0.74736145     0.25500
C1193       C  0.74142074  0.89701936  0.75736286    -0.40900
C1194       C  0.75427474  0.87065800  0.75449114     0.32500
C1195       C  0.81909909  0.88730165  0.71270483     0.01100
F1196       F  0.79423715  0.94086473  0.72278617    -0.13200
F1197       F  0.74149880  0.84722961  0.76402595    -0.13700
C1198       C  0.81640188  0.88622634  0.68352395     0.16000
C1199       C  0.83739074  0.87388496  0.66732754     0.25500
C1200       C  0.86150283  0.86280808  0.68002960    -0.40800
C1201       C  0.86568763  0.86688942  0.70876367     0.32400
C1202       C  0.84446480  0.87888073  0.72506845     0.14100
F1203       F  0.79224022  0.89448472  0.67104729    -0.13200
F1204       F  0.88882272  0.85635308  0.72149936    -0.13700
F1205       F  0.83310978  0.87043538  0.63952593    -0.16000
F1206       F  0.84767902  0.88013573  0.75318850    -0.14500
F1207       F  0.79136418  0.84216225  0.73766132    -0.14500
F1208       F  0.74414789  0.94652163  0.74947656    -0.16000
C1209       C  0.79419410  0.82109721  0.48530969     0.14100
C1210       C  0.79019836  0.81059874  0.51247745     0.01100
C1211       C  0.76265702  0.80600626  0.52183612     0.16000
C1212       C  0.73964958  0.81366526  0.50518394     0.25500
C1213       C  0.74367926  0.82618381  0.47888003    -0.40900
C1214       C  0.77116993  0.82889245  0.46874710     0.32500
C1215       C  0.81433252  0.80667596  0.53200862     0.01100
F1216       F  0.75801672  0.79644113  0.54814352    -0.13200
F1217       F  0.77575167  0.84139164  0.44369016    -0.13700
C1218       C  0.83080290  0.82956007  0.54018337     0.16000
C1219       C  0.85110497  0.82667828  0.56128329     0.25500
C1220       C  0.85539132  0.80078072  0.57478052    -0.40800
C1221       C  0.84005504  0.77753666  0.56516932     0.32400
C1222       C  0.81972910  0.78053003  0.54421355     0.14100
F1223       F  0.82616852  0.85514758  0.52880185    -0.13200
F1224       F  0.84426247  0.75182288  0.57642579    -0.13700
F1225       F  0.86549570  0.84963046  0.56939295    -0.16000
F1226       F  0.80489498  0.75785722  0.53612654    -0.14500
F1227       F  0.82044859  0.82517860  0.47537292    -0.14500
F1228       F  0.71352295  0.81176930  0.51610088    -0.16000
C1229       C  0.57274164  0.77652920  0.47923715     0.14100
C1230       C  0.56724483  0.76510595  0.45282066     0.01100
C1231       C  0.58481579  0.77234603  0.43042530     0.16000
C1232       C  0.60608433  0.79214172  0.43380218     0.25500
C1233       C  0.61029648  0.80535795  0.45974744    -0.40900
C1234       C  0.59410358  0.79626725  0.48275146     0.32500
C1235       C  0.54116042  0.74892448  0.44745384     0.01100
F1236       F  0.58007624  0.76174289  0.40462278    -0.13200
F1237       F  0.59806881  0.80723607  0.50853728    -0.13700
C1238       C  0.51503850  0.76204288  0.45077763     0.16000
C1239       C  0.49069755  0.74978585  0.44023875     0.25500
C1240       C  0.49177057  0.72392836  0.42639702    -0.40800
C1241       C  0.51754395  0.70968631  0.42509119     0.32400
C1242       C  0.54205766  0.72214469  0.43545303     0.14100
F1243       F  0.51338231  0.78794415  0.46204895    -0.13200
F1244       F  0.51951849  0.68505524  0.41133962    -0.13700
F1245       F  0.46624126  0.76418877  0.44178620    -0.16000
F1246       F  0.56691959  0.70875071  0.43240077    -0.14500
F1247       F  0.55670379  0.76930359  0.50148720    -0.14500
F1248       F  0.62147242  0.79940527  0.41112748    -0.16000
C1249       C  0.77848934  0.99595587  0.34435184     0.14100
C1250       C  0.78693615  0.98706143  0.37103991     0.01100
C1251       C  0.81285220  0.99593310  0.38161097     0.16000
C1252       C  0.83001832  0.01349170  0.36570004     0.25500
C1253       C  0.82168090  0.02208029  0.33881893    -0.40900
C1254       C  0.79576657  0.01318700  0.32832355     0.32500
C1255       C  0.76844908  0.96878736  0.38782122     0.01100
F1256       F  0.82170450  0.98720102  0.40713962    -0.13200
F1257       F  0.78671246  0.02203883  0.30292209    -0.13700
C1258       C  0.76100625  0.94229022  0.37797330     0.16000
C1259       C  0.74280069  0.92532798  0.39330354     0.25500
C1260       C  0.73155728  0.93458092  0.41892025    -0.40800
C1261       C  0.73925831  0.96124550  0.42871981     0.32400
C1262       C  0.75753431  0.97807042  0.41333530     0.14100
F1263       F  0.77175594  0.93265810  0.35359896    -0.13200
F1264       F  0.72918963  0.97122154  0.45323728    -0.13700
F1265       F  0.73648504  0.89974977  0.38304535    -0.16000
F1266       F  0.76419220  0.00374461  0.42313912    -0.14500
F1267       F  0.75313427  0.98847154  0.33410393    -0.14500
F1268       F  0.85506468  0.02155948  0.37626874    -0.16000
C1269       C  0.52488011  0.98799043  0.40115370     0.14100
C1270       C  0.53734211  0.96984520  0.38175195     0.01100
C1271       C  0.52449430  0.96602859  0.35577143     0.16000
C1272       C  0.49868046  0.97848128  0.34988387     0.25500
C1273       C  0.48479411  0.99486451  0.37011096    -0.40900
C1274       C  0.49882511  0.00046210  0.39539893     0.32500
C1275       C  0.56110128  0.95153148  0.38991649     0.01100
F1276       F  0.53644576  0.94908060  0.33648246    -0.13200
F1277       F  0.48677014  0.01674545  0.41517892    -0.13700
C1278       C  0.55605276  0.92305246  0.39458242     0.16000
C1279       C  0.57745846  0.90545516  0.40394792     0.25500
C1280       C  0.60454371  0.91583705  0.40850105    -0.40800
C1281       C  0.60998558  0.94412423  0.40272647     0.32400
C1282       C  0.58832103  0.96192788  0.39363867     0.14100
F1283       F  0.52988895  0.91257614  0.39142407    -0.13200
F1284       F  0.63565646  0.95493217  0.40796478    -0.13700
F1285       F  0.57140499  0.87842388  0.40994352    -0.16000
F1286       F  0.59368746  0.98937900  0.38923502    -0.14500
F1287       F  0.53708700  0.99222638  0.42636833    -0.14500
F1288       F  0.48690825  0.97357625  0.32457874    -0.16000
C1289       C  0.68761538  0.85100103  0.60635493     0.14100
C1290       C  0.66064447  0.85024038  0.61798587     0.01100
C1291       C  0.63729976  0.84750251  0.60059074     0.16000
C1292       C  0.64054405  0.84971561  0.57188118     0.25500
C1293       C  0.66704582  0.85561946  0.56049803    -0.40900
C1294       C  0.69085464  0.85402944  0.57760953     0.32500
C1295       C  0.65644357  0.85962578  0.64672215     0.01100
F1296       F  0.61106186  0.84652878  0.61139372    -0.13200
F1297       F  0.71679870  0.85879722  0.56715120    -0.13700
C1298       C  0.66611282  0.88617954  0.65411970     0.16000
C1299       C  0.66175732  0.89628784  0.68080224     0.25500
C1300       C  0.64742719  0.88002422  0.70071189    -0.40800
C1301       C  0.63630571  0.85403027  0.69272907     0.32400
C1302       C  0.64088808  0.84388889  0.66586495     0.14100
F1303       F  0.67970319  0.90254674  0.63532009    -0.13200
F1304       F  0.62172420  0.83802635  0.71102843    -0.13700
F1305       F  0.67245452  0.92170270  0.68718386    -0.16000
F1306       F  0.63062716  0.81853569  0.65869750    -0.14500
F1307       F  0.71048316  0.85247719  0.62311032    -0.14500
F1308       F  0.61733228  0.84908623  0.55552540    -0.16000
C1309       C  0.43354832  0.27322253  0.07571216     0.14100
C1310       C  0.45469877  0.26978707  0.05556009     0.01100
C1311       C  0.45322170  0.28581139  0.03091841     0.16000
C1312       C  0.43219771  0.30605543  0.02732405     0.25500
C1313       C  0.41184880  0.31061268  0.04823498    -0.40900
C1314       C  0.41230520  0.29310203  0.07200920     0.32500
C1315       C  0.47948221  0.25161081  0.06172081     0.01100
F1316       F  0.47263830  0.28237233  0.01053905    -0.13200
F1317       F  0.39311320  0.29614446  0.09265904    -0.13700
C1318       C  0.47602924  0.22411580  0.07167739     0.16000
C1319       C  0.49875033  0.20933888  0.08305864     0.25500
C1320       C  0.52551808  0.22131612  0.08374132    -0.40800
C1321       C  0.52948448  0.24772309  0.07164830     0.32400
C1322       C  0.50670067  0.26284740  0.06095088     0.14100
F1323       F  0.45034096  0.21213286  0.07179186    -0.13200
F1324       F  0.55496951  0.26007944  0.07282950    -0.13700
F1325       F  0.49424524  0.18414959  0.09528850    -0.16000
F1326       F  0.51092696  0.28949836  0.05228588    -0.14500
F1327       F  0.43441370  0.25862167  0.10004768    -0.14500
F1328       F  0.43251407  0.32184946  0.00373777    -0.16000
C1329       C  0.70079185  0.20808338  0.04176590     0.14100
C1330       C  0.70757172  0.18063238  0.03376795     0.01100
C1331       C  0.69071802  0.15872861  0.04373494     0.16000
C1332       C  0.66808109  0.16398885  0.06163238     0.25500
C1333       C  0.66189436  0.19134420  0.07066068    -0.40900
C1334       C  0.67835226  0.21338736  0.06004764     0.32500
C1335       C  0.73300174  0.17444288  0.01645470     0.01100
F1336       F  0.69707417  0.13187569  0.03734930    -0.13200
F1337       F  0.67302534  0.24014250  0.06762197    -0.13700
C1338       C  0.75977641  0.18241021  0.02572135     0.16000
C1339       C  0.78394082  0.17327198  0.01173180     0.25500
C1340       C  0.78199449  0.15638585  0.98783101    -0.40800
C1341       C  0.75523196  0.14965513  0.97766130     0.32400
C1342       C  0.73102647  0.15849383  0.99185817     0.14100
F1343       F  0.76267211  0.19737860  0.04953939    -0.13200
F1344       F  0.75251888  0.13233776  0.95546927    -0.13700
F1345       F  0.80941256  0.17965751  0.02244643    -0.16000
F1346       F  0.70561096  0.15046982  0.98219330    -0.14500
F1347       F  0.71610905  0.22983890  0.03204415    -0.14500
F1348       F  0.65316915  0.14190650  0.07125677    -0.16000
C1349       C  0.49319748  0.12448360  0.19588512     0.14100
C1350       C  0.49635984  0.12443887  0.22498864     0.01100
C1351       C  0.51729191  0.14079927  0.23720387     0.16000
C1352       C  0.53474737  0.15728706  0.22053764     0.25500
C1353       C  0.53179676  0.15731548  0.19125334    -0.40900
C1354       C  0.51085831  0.14066172  0.17910476     0.32500
C1355       C  0.47779933  0.10743705  0.24280016     0.01100
F1356       F  0.52068057  0.14086541  0.26535152    -0.13200
F1357       F  0.50696105  0.14060210  0.15103033    -0.13700
C1358       C  0.48714292  0.08181672  0.25348943     0.16000
C1359       C  0.47029860  0.06639917  0.27170539     0.25500
C1360       C  0.44371140  0.07651458  0.27982686    -0.40800
C1361       C  0.43416031  0.10197339  0.26826159     0.32400
C1362       C  0.45109498  0.11722594  0.24992422     0.14100
F1363       F  0.51270740  0.07175417  0.24628496    -0.13200
F1364       F  0.40854038  0.11235023  0.27476673    -0.13700
F1365       F  0.48019752  0.04157773  0.28133121    -0.16000
F1366       F  0.44163462  0.14186899  0.23945169    -0.14500
F1367       F  0.47300467  0.10880136  0.18375426    -0.14500
F1368       F  0.55484968  0.17281071  0.23304393    -0.16000
C1369       C  0.75180027  0.12143032  0.20204733     0.14100
C1370       C  0.72874235  0.10495330  0.20953984     0.01100
C1371       C  0.73159420  0.08533145  0.23120449     0.16000
C1372       C  0.75704548  0.08255850  0.24550819     0.25500
C1373       C  0.78001716  0.09958631  0.23846582    -0.40900
C1374       C  0.77711638  0.11879943  0.21628822     0.32500
C1375       C  0.70129486  0.11047059  0.19630446     0.01100
F1376       F  0.70964865  0.06898202  0.23856568    -0.13200
F1377       F  0.79887725  0.13499625  0.20805401    -0.13700
C1378       C  0.69856571  0.10984507  0.16707721     0.16000
C1379       C  0.67531862  0.12208966  0.15421593     0.25500
C1380       C  0.65434878  0.13461739  0.17041232    -0.40800
C1381       C  0.65581863  0.13305223  0.19960143     0.32400
C1382       C  0.67917170  0.12102123  0.21251541     0.14100
F1383       F  0.71948708  0.09947346  0.15096446    -0.13200
F1384       F  0.63632074  0.14615551  0.21549915    -0.13700
F1385       F  0.67459003  0.12421605  0.12594782    -0.16000
F1386       F  0.68158205  0.12250874  0.24070800    -0.14500
F1387       F  0.74955247  0.14085719  0.18143597    -0.14500
F1388       F  0.75895563  0.06363337  0.26657052    -0.16000
C1389       C  0.63054995  0.31528176  0.30511211     0.14100
C1390       C  0.63141685  0.28618076  0.30881527     0.01100
C1391       C  0.63979321  0.27520403  0.33479265     0.16000
C1392       C  0.64865655  0.29309935  0.35618592     0.25500
C1393       C  0.64950986  0.32210376  0.35169800    -0.40900
C1394       C  0.63972086  0.33303688  0.32625506     0.32500
C1395       C  0.62537586  0.26788553  0.28462254     0.01100
F1396       F  0.64049689  0.24719126  0.33899143    -0.13200
F1397       F  0.64099479  0.36089681  0.32116098    -0.13700
C1398       C  0.64685676  0.25234894  0.27187118     0.16000
C1399       C  0.64257863  0.23989681  0.24569071     0.25500
C1400       C  0.61671039  0.24290595  0.23182116    -0.40800
C1401       C  0.59467278  0.25669008  0.24586830     0.32400
C1402       C  0.59904101  0.26906492  0.27184708     0.14100
F1403       F  0.67253695  0.25081535  0.28389985    -0.13200
F1404       F  0.56891948  0.25906922  0.23411737    -0.13700
F1405       F  0.66422385  0.22635753  0.23332362    -0.16000
F1406       F  0.57776452  0.28331297  0.28408116    -0.14500
F1407       F  0.62278133  0.32644545  0.28017393    -0.14500
F1408       F  0.65888882  0.28199971  0.38024764    -0.16000
C1409       C  0.67277274  0.46484809  0.32273566     0.14100
C1410       C  0.69577467  0.47394735  0.30675896     0.01100
C1411       C  0.72241524  0.46327974  0.31342221     0.16000
C1412       C  0.72576997  0.44287137  0.33433685     0.25500
C1413       C  0.70251825  0.43254013  0.34939826    -0.40900
C1414       C  0.67607897  0.44455415  0.34381169     0.32500
C1415       C  0.69135358  0.49193747  0.28137250     0.01100
F1416       F  0.74526287  0.47217866  0.29915921    -0.13200
F1417       F  0.65298579  0.43562319  0.35762112    -0.13700
C1418       C  0.67629681  0.51727389  0.28274468     0.16000
C1419       C  0.66749409  0.53100804  0.25818047     0.25500
C1420       C  0.67340446  0.51953349  0.23181263    -0.40800
C1421       C  0.69074048  0.49580681  0.23050151     0.32400
C1422       C  0.69964494  0.48220030  0.25491311     0.14100
F1423       F  0.66886711  0.52796490  0.30787803    -0.13200
F1424       F  0.69717757  0.48444470  0.20537819    -0.13700
F1425       F  0.65084380  0.55389680  0.26026526    -0.16000
F1426       F  0.71427707  0.45801751  0.25250161    -0.14500
F1427       F  0.64663986  0.47429360  0.31675126    -0.14500
F1428       F  0.75186674  0.43272296  0.33923346    -0.16000
C1429       C  0.72011715  0.57498789  0.07481180     0.14100
C1430       C  0.72029473  0.55692818  0.05157438     0.01100
C1431       C  0.70114074  0.53472220  0.05106199     0.16000
C1432       C  0.68141702  0.53146337  0.07235218     0.25500
C1433       C  0.68082113  0.54979419  0.09522197    -0.40900
C1434       C  0.70079303  0.57120270  0.09660692     0.32500
C1435       C  0.73890462  0.56218003  0.02701485     0.01100
F1436       F  0.70122051  0.51629377  0.02961492    -0.13200
F1437       F  0.70040673  0.58958585  0.11809427    -0.13700
C1438       C  0.76782093  0.56672827  0.03033468     0.16000
C1439       C  0.78442380  0.57450024  0.00740437     0.25500
C1440       C  0.77270621  0.57692763  0.98057199    -0.40800
C1441       C  0.74425450  0.57063895  0.97699055     0.32400
C1442       C  0.72744338  0.56385036  0.99993427     0.14100
F1443       F  0.77979424  0.56482352  0.05597237    -0.13200
F1444       F  0.73201497  0.57400595  0.95161652    -0.13700
F1445       F  0.81142971  0.58196760  0.01177533    -0.16000
F1446       F  0.69945343  0.56123850  0.99592208    -0.14500
F1447       F  0.73753061  0.59727462  0.07571539    -0.14500
F1448       F  0.66257046  0.51042291  0.07042168    -0.16000
C1449       C  0.53484217  0.61598267  0.23767233     0.14100
C1450       C  0.53623936  0.61028533  0.26645625     0.01100
C1451       C  0.55491424  0.58971252  0.27620938     0.16000
C1452       C  0.57183116  0.57505309  0.25753859     0.25500
C1453       C  0.57098225  0.58128000  0.22884764    -0.40900
C1454       C  0.55231310  0.60189519  0.21907983     0.32500
C1455       C  0.51851986  0.62599913  0.28632557     0.01100
F1456       F  0.55728432  0.58425350  0.30394352    -0.13200
F1457       F  0.55037723  0.60790394  0.19140601    -0.13700
C1458       C  0.50152306  0.61180555  0.30559951     0.16000
C1459       C  0.48520946  0.62662560  0.32467817     0.25500
C1460       C  0.48524088  0.65600877  0.32460663    -0.40800
C1461       C  0.50204494  0.67018704  0.30501256     0.32400
C1462       C  0.51867307  0.65531644  0.28625525     0.14100
F1463       F  0.50029907  0.58350983  0.30563309    -0.13200
F1464       F  0.50194028  0.69848163  0.30343770    -0.13700
F1465       F  0.46946939  0.61211503  0.34327581    -0.16000
F1466       F  0.53518083  0.66963204  0.26816203    -0.14500
F1467       F  0.51617190  0.63485193  0.22746602    -0.14500
F1468       F  0.58957007  0.55528956  0.26766532    -0.16000
C1469       C  0.53739499  0.61022712  0.06812362     0.14100
C1470       C  0.55536239  0.61738710  0.04613685     0.01100
C1471       C  0.58440404  0.61708802  0.05043790     0.16000
C1472       C  0.59542585  0.60781778  0.07592402     0.25500
C1473       C  0.57744965  0.59866103  0.09730986    -0.40900
C1474       C  0.54834216  0.60084912  0.09352348     0.32500
C1475       C  0.54378653  0.62277338  0.01810580     0.01100
F1476       F  0.60206002  0.62360671  0.02921588    -0.13200
F1477       F  0.53053373  0.59208371  0.11378913    -0.13700
C1478       C  0.54423849  0.64968228  0.00671653     0.16000
C1479       C  0.53280107  0.65475306  0.98034135     0.25500
C1480       C  0.52077218  0.63282569  0.96479418    -0.40800
C1481       C  0.52070966  0.60574758  0.97626137     0.32400
C1482       C  0.53211772  0.60081310  0.00271386     0.14100
F1483       F  0.55538839  0.67113557  0.02137249    -0.13200
F1484       F  0.51019381  0.58391838  0.96170257    -0.13700
F1485       F  0.53318523  0.68128345  0.97029399    -0.16000
F1486       F  0.53220142  0.57445816  0.01320484    -0.14500
F1487       F  0.50924370  0.61095215  0.06441628    -0.14500
F1488       F  0.62356479  0.60483000  0.07849976    -0.16000
C1489       C  0.63540880  0.39455660  0.14573189     0.14100
C1490       C  0.62493521  0.38560667  0.11989450     0.01100
C1491       C  0.61654636  0.40513621  0.09975361     0.16000
C1492       C  0.61702503  0.43347267  0.10603762     0.25500
C1493       C  0.62528294  0.44227599  0.13277751    -0.40900
C1494       C  0.63539518  0.42281125  0.15223506     0.32500
C1495       C  0.61922612  0.35595347  0.11600682     0.01100
F1496       F  0.60640100  0.39662873  0.07472975    -0.13200
F1497       F  0.64406281  0.43108385  0.17790058    -0.13700
C1498       C  0.59163859  0.34635102  0.11840237     0.16000
C1499       C  0.58646593  0.31797115  0.12215252     0.25500
C1500       C  0.60896779  0.29902508  0.12355109    -0.40800
C1501       C  0.63634520  0.30860944  0.11836522     0.32400
C1502       C  0.64141372  0.33696170  0.11486033     0.14100
F1503       F  0.56998709  0.36472434  0.11965678    -0.13200
F1504       F  0.65843745  0.29073236  0.11813574    -0.13700
F1505       F  0.55979588  0.30950574  0.12681634    -0.16000
F1506       F  0.66812678  0.34611595  0.11216852    -0.14500
F1507       F  0.64360945  0.37575062  0.16540110    -0.14500
F1508       F  0.60704358  0.45202836  0.08695162    -0.16000
C1509       C  0.46102298  0.41236904  0.13094900     0.14100
C1510       C  0.45320747  0.43693055  0.14476339     0.01100
C1511       C  0.42474058  0.44393595  0.14697007     0.16000
C1512       C  0.40454622  0.42799085  0.13308196     0.25500
C1513       C  0.41289289  0.40543303  0.11634715    -0.40900
C1514       C  0.44100970  0.39674595  0.11677347     0.32500
C1515       C  0.47511683  0.45740629  0.15158121     0.01100
F1516       F  0.41682392  0.46739430  0.16066420    -0.13200
F1517       F  0.44941041  0.37440162  0.10152507    -0.13700
C1518       C  0.48171275  0.47804319  0.13178149     0.16000
C1519       C  0.50606687  0.49382296  0.13455463     0.25500
C1520       C  0.52395525  0.48955123  0.15746463    -0.40800
C1521       C  0.51632190  0.47017321  0.17828929     0.32400
C1522       C  0.49221421  0.45391797  0.17514082     0.14100
F1523       F  0.46550060  0.48153340  0.10873218    -0.13200
F1524       F  0.53336556  0.46533848  0.20047572    -0.13700
F1525       F  0.51271297  0.51259606  0.11433717    -0.16000
F1526       F  0.48636470  0.43375931  0.19422531    -0.14500
F1527       F  0.48842170  0.40511964  0.12882009    -0.14500
F1528       F  0.37740540  0.43638922  0.13347139    -0.16000
C1529       C  0.45506150  0.30083827  0.71436340     0.14100
C1530       C  0.46879552  0.29772885  0.68848747     0.01100
C1531       C  0.46320267  0.31763884  0.66733768     0.16000
C1532       C  0.44378022  0.33932534  0.67172519     0.25500
C1533       C  0.42874194  0.34101718  0.69689926    -0.40900
C1534       C  0.43483761  0.32175682  0.71824883     0.32500
C1535       C  0.48672284  0.27246317  0.68290436     0.01100
F1536       F  0.47516115  0.31518504  0.64176679    -0.13200
F1537       F  0.42095826  0.32307456  0.74292676    -0.13700
C1538       C  0.47647678  0.24555865  0.68905651     0.16000
C1539       C  0.49155475  0.22164020  0.68150130     0.25500
C1540       C  0.51707260  0.22372402  0.66711001    -0.40800
C1541       C  0.52812549  0.25045634  0.66204192     0.32400
C1542       C  0.51321676  0.27457543  0.67000929     0.14100
F1543       F  0.45071024  0.24221534  0.70044741    -0.13200
F1544       F  0.55208755  0.25329588  0.64711310    -0.13700
F1545       F  0.48015909  0.19618652  0.68644929    -0.16000
F1546       F  0.52427214  0.29998164  0.66417092    -0.14500
F1547       F  0.46088795  0.28325078  0.73588548    -0.14500
F1548       F  0.43826387  0.35753622  0.65062890    -0.16000
C1549       C  0.55470314  0.99415795  0.74323195     0.14100
C1550       C  0.56575007  0.02135640  0.74566009     0.01100
C1551       C  0.58675899  0.02599881  0.76574298     0.16000
C1552       C  0.59818514  0.00366066  0.78100378     0.25500
C1553       C  0.58929466  0.97621122  0.77613075    -0.40900
C1554       C  0.56685000  0.97171939  0.75781760     0.32500
C1555       C  0.55917904  0.04330388  0.72419192     0.01100
F1556       F  0.59836327  0.05162736  0.76855678    -0.13200
F1557       F  0.55803559  0.94535118  0.75258090    -0.13700
C1558       C  0.55287453  0.07117973  0.73139032     0.16000
C1559       C  0.55017543  0.09200991  0.71059864     0.25500
C1560       C  0.55311179  0.08526749  0.68210773    -0.40800
C1561       C  0.55856796  0.05710284  0.67516224     0.32400
C1562       C  0.56187564  0.03670620  0.69576678     0.14100
F1563       F  0.54925713  0.07825169  0.75856148    -0.13200
F1564       F  0.56180025  0.04906366  0.64820121    -0.13700
F1565       F  0.54451926  0.11862087  0.71838101    -0.16000
F1566       F  0.56915768  0.01053073  0.68772024    -0.14500
F1567       F  0.53342180  0.98897492  0.72521674    -0.14500
F1568       F  0.62017773  0.00845973  0.79825274    -0.16000
C1569       C  0.63434560  0.29997768  0.51342965     0.14100
C1570       C  0.64195685  0.27183029  0.51726272     0.01100
C1571       C  0.66440295  0.26108303  0.50163899     0.16000
C1572       C  0.67859282  0.27792494  0.48228731     0.25500
C1573       C  0.67061882  0.30603123  0.47792375    -0.40900
C1574       C  0.64834123  0.31682273  0.49395845     0.32500
C1575       C  0.62556049  0.25350775  0.53650525     0.01100
F1576       F  0.67213833  0.23394268  0.50447781    -0.13200
F1577       F  0.64018766  0.34384625  0.49117648    -0.13700
C1578       C  0.59644994  0.25114557  0.53313869     0.16000
C1579       C  0.58066467  0.23422093  0.55099434     0.25500
C1580       C  0.59359193  0.21880299  0.57257625    -0.40800
C1581       C  0.62286364  0.22076026  0.57570223     0.32400
C1582       C  0.63863112  0.23809522  0.55799528     0.14100
F1583       F  0.58328649  0.26465297  0.51188437    -0.13200
F1584       F  0.63624699  0.20619285  0.59611048    -0.13700
F1585       F  0.55273180  0.23214916  0.54637209    -0.16000
F1586       F  0.66664001  0.24013218  0.56214458    -0.14500
F1587       F  0.61341621  0.31132483  0.52885755    -0.14500
F1588       F  0.69989155  0.26641036  0.46750346    -0.16000
C1589       C  0.62990941  0.04480468  0.58514665     0.14100
C1590       C  0.63227367  0.04434579  0.55587623     0.01100
C1591       C  0.62675062  0.06869854  0.54052271     0.16000
C1592       C  0.61647309  0.09240031  0.55390197     0.25500
C1593       C  0.61149190  0.09208536  0.58283031    -0.40900
C1594       C  0.61961056  0.06863117  0.59860328     0.32500
C1595       C  0.63817450  0.01796138  0.54113924     0.01100
F1596       F  0.62968146  0.06892437  0.51233410    -0.13200
F1597       F  0.61451483  0.06757222  0.62646418    -0.13700
C1598       C  0.61765092  0.00577846  0.52407975     0.16000
C1599       C  0.62276936  0.98026544  0.51084382     0.25500
C1600       C  0.64861778  0.96650802  0.51443220    -0.40800
C1601       C  0.66936752  0.97936797  0.53104961     0.32400
C1602       C  0.66404808  0.00467456  0.54437132     0.14100
F1603       F  0.59229121  0.01824190  0.52093396    -0.13200
F1604       F  0.69492231  0.96746528  0.53472145    -0.13700
F1605       F  0.60217472  0.96883488  0.49511908    -0.16000
F1606       F  0.68425859  0.01630125  0.56044643    -0.14500
F1607       F  0.63519422  0.02141496  0.60037164    -0.14500
F1608       F  0.60882825  0.11486598  0.53827107    -0.16000
C1609       C  0.43422134  0.11967829  0.45118109     0.14100
C1610       C  0.46193511  0.12633813  0.44424513     0.01100
C1611       C  0.47131302  0.12201117  0.41676960     0.16000
C1612       C  0.45355823  0.10980514  0.39689445     0.25500
C1613       C  0.42641570  0.10144063  0.40448102    -0.40900
C1614       C  0.41669540  0.10725761  0.43155515     0.32500
C1615       C  0.48136590  0.13458829  0.46683987     0.01100
F1616       F  0.49803842  0.12831177  0.40965728    -0.13200
F1617       F  0.39073182  0.09908192  0.43958486    -0.13700
C1618       C  0.50152763  0.11544971  0.47655823     0.16000
C1619       C  0.51511909  0.11990190  0.50204186     0.25500
C1620       C  0.50914257  0.14380570  0.51787648    -0.40800
C1621       C  0.49066333  0.16400785  0.50706485     0.32400
C1622       C  0.47666404  0.15928382  0.48185530     0.14100
F1623       F  0.50634680  0.09135461  0.46252836    -0.13200
F1624       F  0.48412628  0.18702479  0.52218364    -0.13700
F1625       F  0.53313413  0.10024532  0.51193602    -0.16000
F1626       F  0.45713429  0.17793261  0.47298687    -0.14500
F1627       F  0.42483326  0.12311648  0.47770937    -0.14500
F1628       F  0.46372537  0.10378281  0.37115348    -0.16000
C1629       C  0.23072659  0.06895422  0.46752564     0.14100
C1630       C  0.25633663  0.05532342  0.47296760     0.01100
C1631       C  0.26338794  0.04947696  0.50101515     0.16000
C1632       C  0.24637750  0.05898724  0.52298337     0.25500
C1633       C  0.22234371  0.07507312  0.51745046    -0.40900
C1634       C  0.21427743  0.07924582  0.48949545     0.32500
C1635       C  0.27698314  0.05027702  0.44988023     0.01100
F1636       F  0.28803188  0.03680619  0.50733909    -0.13200
F1637       F  0.19140486  0.09500862  0.48344342    -0.13700
C1638       C  0.28495461  0.07234843  0.43207070     0.16000
C1639       C  0.30595510  0.06872930  0.41193408     0.25500
C1640       C  0.32004685  0.04298078  0.40918933    -0.40800
C1641       C  0.31138297  0.02057846  0.42643108     0.32400
C1642       C  0.29012416  0.02419187  0.44640498     0.14100
F1643       F  0.27339026  0.09806524  0.43507344    -0.13200
F1644       F  0.32374587  0.99512812  0.42438037    -0.13700
F1645       F  0.31321652  0.09099742  0.39594773    -0.16000
F1646       F  0.28250630  0.00211690  0.46250053    -0.14500
F1647       F  0.22234978  0.07364097  0.44082332    -0.14500
F1648       F  0.25510451  0.05516373  0.54970672    -0.16000
C1649       C  0.17662851  0.01930700  0.67928728     0.14100
C1650       C  0.19991767  0.01131417  0.69544391     0.01100
C1651       C  0.22643109  0.02124833  0.68775143     0.16000
C1652       C  0.22940837  0.04037252  0.66572073     0.25500
C1653       C  0.20579217  0.05037480  0.65095310    -0.40900
C1654       C  0.17949671  0.03852486  0.65723556     0.32500
C1655       C  0.19603917  0.99617723  0.72247206     0.01100
F1656       F  0.24940496  0.01334986  0.70249164    -0.13200
F1657       F  0.15616621  0.04670905  0.64322376    -0.13700
C1658       C  0.18420000  0.96932471  0.72376077     0.16000
C1659       C  0.17691907  0.95731915  0.74966307     0.25500
C1660       C  0.18105282  0.97215375  0.77464106    -0.40800
C1661       C  0.19474502  0.99814815  0.77327173     0.32400
C1662       C  0.20206634  0.00999488  0.74756540     0.14100
F1663       F  0.17842920  0.95534367  0.69987515    -0.13200
F1664       F  0.19880363  0.01330486  0.79682631    -0.13700
F1665       F  0.16326793  0.93254360  0.75006600    -0.16000
F1666       F  0.21287922  0.03616210  0.74709496    -0.14500
F1667       F  0.15069341  0.01011709  0.68616647    -0.14500
F1668       F  0.25540941  0.05000784  0.65979811    -0.16000
C1669       C  0.13379912  0.25695464  0.46506263     0.14100
C1670       C  0.11822966  0.24359240  0.48601290     0.01100
C1671       C  0.08901595  0.24666480  0.48641640     0.16000
C1672       C  0.07546802  0.26175614  0.46539235     0.25500
C1673       C  0.09087689  0.27432509  0.44376716    -0.40900
C1674       C  0.12032634  0.27233584  0.44416977     0.32500
C1675       C  0.13217945  0.22444418  0.50586388     0.01100
F1676       F  0.07367528  0.23499290  0.50720886    -0.13200
F1677       F  0.13601675  0.28460152  0.42399999    -0.13700
C1678       C  0.15422504  0.23368735  0.52278087     0.16000
C1679       C  0.16926766  0.21468980  0.53916596     0.25500
C1680       C  0.16245577  0.18604905  0.53891402    -0.40800
C1681       C  0.13950290  0.17715389  0.52286938     0.32400
C1682       C  0.12461162  0.19617448  0.50645253     0.14100
F1683       F  0.16141370  0.26106977  0.52314475    -0.13200
F1684       F  0.13223484  0.14982557  0.52186012    -0.13700
F1685       F  0.19072774  0.22435414  0.55496007    -0.16000
F1686       F  0.10363778  0.18668707  0.48992951    -0.14500
F1687       F  0.16208105  0.25425473  0.46418975    -0.14500
F1688       F  0.04720383  0.26451063  0.46662213    -0.16000
C1689       C  0.15583927  0.23118489  0.73915516     0.14100
C1690       C  0.13368597  0.21943272  0.72384146     0.01100
C1691       C  0.10609492  0.22558898  0.73155386     0.16000
C1692       C  0.10068525  0.24172539  0.75525767     0.25500
C1693       C  0.12281624  0.25207215  0.77174482    -0.40900
C1694       C  0.15047382  0.24751382  0.76283336     0.32500
C1695       C  0.13950020  0.19842338  0.70188794     0.01100
F1696       F  0.08437621  0.21439545  0.71722750    -0.13200
F1697       F  0.17232735  0.25688885  0.77823010    -0.13700
C1698       C  0.15125588  0.17265153  0.70952608     0.16000
C1699       C  0.15969014  0.15367801  0.68913135     0.25500
C1700       C  0.15679098  0.16016663  0.66055754    -0.40800
C1701       C  0.14265098  0.18487400  0.65291782     0.32400
C1702       C  0.13407702  0.20391846  0.67351220     0.14100
F1703       F  0.15529530  0.16619199  0.73686498    -0.13200
F1704       F  0.13902034  0.19156895  0.62558882    -0.13700
F1705       F  0.17181329  0.12931896  0.69733171    -0.16000
F1706       F  0.12193858  0.22836714  0.66570280    -0.14500
F1707       F  0.18273648  0.22571047  0.73187147    -0.14500
F1708       F  0.07367947  0.24616004  0.76285777    -0.16000
C1709       C  0.41476383  0.08589787  0.60081439     0.14100
C1710       C  0.39345556  0.10574134  0.59813284     0.01100
C1711       C  0.39913004  0.13411374  0.60234584     0.16000
C1712       C  0.42629350  0.14281764  0.60778617     0.25500
C1713       C  0.44808774  0.12316530  0.60914520    -0.40900
C1714       C  0.44202197  0.09452551  0.60636256     0.32500
C1715       C  0.36477922  0.09746037  0.59191146     0.01100
F1716       F  0.37827011  0.15338424  0.60090153    -0.13200
F1717       F  0.46266635  0.07502214  0.60727061    -0.13700
C1718       C  0.34787519  0.08781886  0.61369975     0.16000
C1719       C  0.31895150  0.09009076  0.61147549     0.25500
C1720       C  0.30694324  0.10197384  0.58737694    -0.40800
C1721       C  0.32378048  0.10751028  0.56399535     0.32400
C1722       C  0.35275265  0.10548071  0.56638360     0.16500
F1723       F  0.35941575  0.07943429  0.63825882    -0.13200
F1724       F  0.31260631  0.11825020  0.54017982    -0.13700
F1725       F  0.30285784  0.08317653  0.63378604    -0.16000
F1726       F  0.36912758  0.11426967  0.54495327    -0.14500
F1727       F  0.40930610  0.05839323  0.59706912    -0.14500
F1728       F  0.43136482  0.17044443  0.61128870    -0.16000
C1729       C  0.32800900  0.29441889  0.63113007     0.14100
C1730       C  0.29871032  0.29270903  0.62920080     0.01100
C1731       C  0.28248188  0.31653229  0.63460979     0.16000
C1732       C  0.29519966  0.34112116  0.64373656     0.25500
C1733       C  0.32435582  0.34228922  0.64755073    -0.40900
C1734       C  0.34076697  0.31906338  0.64022975     0.32500
C1735       C  0.28508140  0.26558055  0.62350374     0.01100
F1736       F  0.25420190  0.31553703  0.63232047    -0.13200
F1737       F  0.36878901  0.31916917  0.64488094    -0.13700
C1738       C  0.27026056  0.25162378  0.64468537     0.16000
C1739       C  0.25858760  0.22527017  0.63981493     0.25500
C1740       C  0.26141667  0.21236945  0.61356357    -0.40800
C1741       C  0.27573164  0.22697419  0.59216664     0.32400
C1742       C  0.28753981  0.25314789  0.59723343     0.14100
F1743       F  0.26778776  0.26323604  0.67037174    -0.13200
F1744       F  0.27840679  0.21604275  0.56620853    -0.13700
F1745       F  0.24502043  0.21224576  0.66105288    -0.16000
F1746       F  0.30137363  0.26648026  0.57635814    -0.14500
F1747       F  0.34407205  0.27152258  0.62637217    -0.14500
F1748       F  0.27889713  0.36325858  0.65075439    -0.16000
C1749       C  0.08136275  0.46145036  0.23588551     0.14100
C1750       C  0.06942065  0.46470328  0.26251736     0.01100
C1751       C  0.06519049  0.49190807  0.27283972     0.16000
C1752       C  0.07494012  0.51509974  0.25785869     0.25500
C1753       C  0.08943336  0.51145629  0.23264080    -0.40900
C1754       C  0.09176372  0.48456762  0.22134799     0.32500
C1755       C  0.06499865  0.43992457  0.28086755     0.01100
F1756       F  0.05423947  0.49594330  0.29866472    -0.13200
F1757       F  0.10649695  0.48043166  0.19749293    -0.13700
C1758       C  0.08724218  0.42111284  0.28590412     0.16000
C1759       C  0.08432409  0.39928546  0.30516910     0.25500
C1760       C  0.05947639  0.39634109  0.32033245    -0.40800
C1761       C  0.03701151  0.41460167  0.31496293     0.32400
C1762       C  0.03959229  0.43597744  0.29512747     0.14100
F1763       F  0.11254077  0.42504672  0.27368137    -0.13200
F1764       F  0.01284608  0.41225062  0.32966026    -0.13700
F1765       F  0.10657730  0.38249524  0.31074527    -0.16000
F1766       F  0.01753320  0.45327962  0.29043534    -0.14500
F1767       F  0.08477202  0.43561671  0.22485281    -0.14500
F1768       F  0.07319681  0.54079324  0.26958989    -0.16000
C1769       C  0.02263207  0.74039452  0.19486822     0.14100
C1770       C  0.01485641  0.71261362  0.18935454     0.01100
C1771       C  0.98922368  0.70768625  0.17585078     0.16000
C1772       C  0.97279731  0.72999947  0.16615329     0.25500
C1773       C  0.98128856  0.75773779  0.17031135    -0.40900
C1774       C  0.00595578  0.76274018  0.18545391     0.32500
C1775       C  0.03451612  0.68901863  0.19527417     0.01100
F1776       F  0.98078390  0.68116584  0.17081020    -0.13200
F1777       F  0.01542229  0.78923011  0.18851321    -0.13700
C1778       C  0.04445677  0.68389757  0.22241173     0.16000
C1779       C  0.06408446  0.66263296  0.22751279     0.25500
C1780       C  0.07450819  0.64599568  0.20548599    -0.40800
C1781       C  0.06373987  0.65064395  0.17843052     0.32400
C1782       C  0.04413531  0.67193914  0.17341587     0.14100
F1783       F  0.03521996  0.69961489  0.24406546    -0.13200
F1784       F  0.07295810  0.63538037  0.15645055    -0.13700
F1785       F  0.07311934  0.65869502  0.25409566    -0.16000
F1786       F  0.03545800  0.67669361  0.14682259    -0.14500
F1787       F  0.04753663  0.74596183  0.20724568    -0.14500
F1788       F  0.94958565  0.72451910  0.15081343    -0.16000
C1789       C  0.25057748  0.50908108  0.16813162     0.14100
C1790       C  0.24121414  0.48789746  0.15035996     0.01100
C1791       C  0.21237419  0.48366805  0.14676817     0.16000
C1792       C  0.19309258  0.50030481  0.16094006     0.25500
C1793       C  0.20241964  0.52145953  0.17888706    -0.40900
C1794       C  0.23135318  0.52574364  0.18230790     0.32500
C1795       C  0.26140844  0.47048201  0.13505034     0.01100
F1796       F  0.20290657  0.46358046  0.12926077    -0.13200
F1797       F  0.24107298  0.54631549  0.19910457    -0.13700
C1798       C  0.26110912  0.44137818  0.13825480     0.16000
C1799       C  0.27813565  0.42462745  0.12160313     0.25500
C1800       C  0.29570311  0.43682309  0.10139040    -0.40800
C1801       C  0.29733626  0.46613279  0.09964133     0.32400
C1802       C  0.28016467  0.48279202  0.11620532     0.14100
F1803       F  0.24386535  0.42916804  0.15717949    -0.13200
F1804       F  0.31519846  0.47875654  0.08156848    -0.13700
F1805       F  0.27649370  0.39649948  0.12456339    -0.16000
F1806       F  0.28097031  0.51093223  0.11294052    -0.14500
F1807       F  0.27836427  0.51338768  0.17201001    -0.14500
F1808       F  0.16536922  0.49520428  0.15767039    -0.16000
C1809       C  0.23122390  0.65597463  0.14446185     0.14100
C1810       C  0.22017956  0.68174672  0.13568126     0.01100
C1811       C  0.19105925  0.68566775  0.13511597     0.16000
C1812       C  0.17333810  0.66508985  0.14564930     0.25500
C1813       C  0.18447945  0.64017005  0.15640283    -0.40900
C1814       C  0.21337539  0.63511226  0.15454587     0.32500
C1815       C  0.23858378  0.70576255  0.12993566     0.01100
F1816       F  0.17996341  0.71033425  0.12644504    -0.13200
F1817       F  0.22448099  0.61112381  0.16496740    -0.13700
C1818       C  0.24063118  0.71652989  0.10282612     0.16000
C1819       C  0.25363731  0.74216640  0.09809900     0.25500
C1820       C  0.26454392  0.75776524  0.12055534    -0.40800
C1821       C  0.26392045  0.74605998  0.14756021     0.32400
C1822       C  0.25098611  0.72023896  0.15217765     0.14100
F1823       F  0.22892580  0.70272549  0.08107835    -0.13200
F1824       F  0.27396019  0.76040647  0.16976804    -0.13700
F1825       F  0.25466951  0.75215731  0.07155368    -0.16000
F1826       F  0.24881790  0.71025849  0.17865740    -0.14500
F1827       F  0.25929233  0.65166454  0.14468798    -0.14500
F1828       F  0.14543159  0.67022898  0.14722493    -0.16000
C1829       C  0.33616510  0.62362717  0.29317176     0.14100
C1830       C  0.31205414  0.61680543  0.30833993     0.01100
C1831       C  0.31262341  0.61788323  0.33765398     0.16000
C1832       C  0.33623698  0.62814955  0.35150007     0.25500
C1833       C  0.35941406  0.63743855  0.33608605    -0.40900
C1834       C  0.35971949  0.63385959  0.30696175     0.32500
C1835       C  0.28543137  0.61190861  0.29355771     0.01100
F1836       F  0.28941003  0.61145826  0.35263459    -0.13200
F1837       F  0.38196799  0.64263307  0.29169498    -0.13700
C1838       C  0.27364053  0.58524901  0.29284367     0.16000
C1839       C  0.24771342  0.58108554  0.28003284     0.25500
C1840       C  0.23292738  0.60368936  0.26795551    -0.40800
C1841       C  0.24517919  0.63034211  0.26823634     0.32400
C1842       C  0.27123371  0.63437057  0.28092470     0.14100
F1843       F  0.28723017  0.56327723  0.30468343    -0.13200
F1844       F  0.23146526  0.65272863  0.25736791    -0.13700
F1845       F  0.23709831  0.55485386  0.27949754    -0.16000
F1846       F  0.28222481  0.66043784  0.28178430    -0.14500
F1847       F  0.33616936  0.62215333  0.26487371    -0.14500
F1848       F  0.33510116  0.63222821  0.37951642    -0.16000
C1849       C  0.28171910  0.66648773  0.51903963     0.14100
C1850       C  0.28292478  0.67543195  0.49098723     0.01100
C1851       C  0.25779639  0.67652646  0.47560795     0.16000
C1852       C  0.23241893  0.66814126  0.48757386     0.25500
C1853       C  0.23129532  0.65812529  0.51525803    -0.40900
C1854       C  0.25622734  0.65786469  0.53101653     0.32500
C1855       C  0.31013449  0.68238757  0.47695524     0.01100
F1856       F  0.25797897  0.68422712  0.44829196    -0.13200
F1857       F  0.25636623  0.64738744  0.55738203    -0.13700
C1858       C  0.33253802  0.66308708  0.47632340     0.16000
C1859       C  0.35586703  0.66765743  0.45893387     0.25500
C1860       C  0.35693128  0.69127025  0.44146147    -0.40800
C1861       C  0.33568853  0.71151158  0.44378755     0.32400
C1862       C  0.31278114  0.70729755  0.46151344     0.14100
F1863       F  0.33092075  0.63877252  0.49083118    -0.13200
F1864       F  0.33655321  0.73499747  0.42787582    -0.13700
F1865       F  0.37616559  0.64786012  0.45739732    -0.16000
F1866       F  0.29250051  0.72715160  0.46267352    -0.14500
F1867       F  0.30534395  0.66553575  0.53473514    -0.14500
F1868       F  0.20899057  0.66873596  0.47154180    -0.16000
C1869       C  0.07618565  0.71369273  0.58367392     0.14100
C1870       C  0.05338367  0.71604669  0.56499834     0.01100
C1871       C  0.05302421  0.69858611  0.54136825     0.16000
C1872       C  0.07364346  0.67801269  0.53773691     0.25500
C1873       C  0.09587178  0.67534289  0.55682089    -0.40900
C1874       C  0.09747421  0.69399711  0.57923786     0.32500
C1875       C  0.02909735  0.73480909  0.57166198     0.01100
F1876       F  0.03245257  0.70109713  0.52196384    -0.13200
F1877       F  0.11857027  0.69174341  0.59809935    -0.13700
C1878       C  0.03342036  0.76230112  0.58114600     0.16000
C1879       C  0.01136876  0.77768723  0.59287983     0.25500
C1880       C  0.98429492  0.76652331  0.59412556    -0.40800
C1881       C  0.97933435  0.74024869  0.58232943     0.32400
C1882       C  0.00148742  0.72438980  0.57148865     0.14100
F1883       F  0.05929351  0.77384229  0.58024671    -0.13200
F1884       F  0.95340347  0.72884693  0.58363842    -0.13700
F1885       F  0.01682021  0.80274714  0.60477442    -0.16000
F1886       F  0.99616341  0.69791121  0.56312378    -0.14500
F1887       F  0.07701361  0.72912903  0.60734704    -0.14500
F1888       F  0.07171834  0.66039584  0.51569241    -0.16000
C1889       C  0.27978765  0.55052433  0.59088956     0.14100
C1890       C  0.27291598  0.53653587  0.61574747     0.01100
C1891       C  0.24570921  0.53879649  0.62648725     0.16000
C1892       C  0.22541311  0.55426682  0.61231728     0.25500
C1893       C  0.23191198  0.56770881  0.58695742    -0.40900
C1894       C  0.25943951  0.56603833  0.57656848     0.32500
C1895       C  0.29327953  0.51812136  0.62995394     0.01100
F1896       F  0.23848943  0.52503976  0.65024085    -0.13200
F1897       F  0.26674535  0.57963158  0.55275449    -0.13700
C1898       C  0.30086031  0.52324080  0.65772801     0.16000
C1899       C  0.31609619  0.50340194  0.67286083     0.25500
C1900       C  0.32392856  0.47783450  0.66046564    -0.40800
C1901       C  0.31776220  0.47364848  0.63197356     0.32400
C1902       C  0.30256185  0.49363551  0.61691269     0.14100
F1903       F  0.29275041  0.54721130  0.67044667    -0.13200
F1904       F  0.32558322  0.44986008  0.61878263    -0.13700
F1905       F  0.32246230  0.50909592  0.69986834    -0.16000
F1906       F  0.29555011  0.48836800  0.58997762    -0.14500
F1907       F  0.30618895  0.54916518  0.58055979    -0.14500
F1908       F  0.19909126  0.55511772  0.62293154    -0.16000
C1909       C  0.05583474  0.57484827  0.63296027     0.14100
C1910       C  0.05721440  0.54600724  0.63828966     0.01100
C1911       C  0.08284027  0.53201554  0.63522716     0.16000
C1912       C  0.10597568  0.54602548  0.62412580     0.25500
C1913       C  0.10384059  0.57424400  0.61623132    -0.40900
C1914       C  0.07909170  0.58896032  0.62218419     0.32500
C1915       C  0.03109832  0.52986288  0.64176694     0.01100
F1916       F  0.08460554  0.50416331  0.64017149    -0.13200
F1917       F  0.07618715  0.61599676  0.61406431    -0.13700
C1918       C  0.01369432  0.52592242  0.61855311     0.16000
C1919       C  0.98842680  0.51163522  0.62121705     0.25500
C1920       C  0.97977597  0.50108512  0.64737498    -0.40800
C1921       C  0.99803454  0.50393587  0.67041268     0.32400
C1922       C  0.02349913  0.51820057  0.66755657     0.14100
F1923       F  0.02121764  0.53609616  0.59314705    -0.13200
F1924       F  0.99100989  0.49365338  0.69589370    -0.13700
F1925       F  0.97233563  0.50849830  0.59807995    -0.16000
F1926       F  0.04039540  0.52127658  0.69010393    -0.14500
F1927       F  0.03119890  0.58872977  0.63576308    -0.14500
F1928       F  0.12959460  0.53136408  0.61830773    -0.16000
C1929       C  0.11388356  0.57786067  0.36070108     0.14100
C1930       C  0.10392608  0.60443011  0.36805923     0.01100
C1931       C  0.09938742  0.62474019  0.34750508     0.16000
C1932       C  0.10704052  0.61932722  0.32004050     0.25500
C1933       C  0.11919355  0.59352723  0.31306017    -0.40900
C1934       C  0.12144794  0.57238215  0.33325894     0.32500
C1935       C  0.10519423  0.61236309  0.39737136     0.01100
F1936       F  0.08974777  0.65044993  0.35449865    -0.13200
F1937       F  0.13382511  0.54759277  0.32718069    -0.13700
C1938       C  0.12816436  0.62826476  0.40622601     0.16000
C1939       C  0.13624635  0.62759051  0.43408652     0.25500
C1940       C  0.12099778  0.61160728  0.45314625    -0.40800
C1941       C  0.09619041  0.59837620  0.44493710     0.32400
C1942       C  0.08842114  0.59853976  0.41694286     0.14100
F1943       F  0.14450205  0.64184872  0.38742708    -0.13200
F1944       F  0.08113318  0.58307504  0.46348929    -0.13700
F1945       F  0.15972737  0.64119039  0.44220825    -0.16000
F1946       F  0.06620696  0.58313624  0.40850729    -0.14500
F1947       F  0.11930670  0.55834570  0.38065027    -0.14500
F1948       F  0.10416544  0.63982402  0.30061637    -0.16000
C1949       C  0.17069704  0.47105262  0.48332757     0.14100
C1950       C  0.14452931  0.46010664  0.47622411     0.01100
C1951       C  0.12019049  0.47439579  0.48423384     0.16000
C1952       C  0.12185069  0.49988467  0.49818168     0.25500
C1953       C  0.14806290  0.51174248  0.50449591    -0.40900
C1954       C  0.17251531  0.49655458  0.49752961     0.32500
C1955       C  0.14173676  0.43427034  0.45970101     0.01100
F1956       F  0.09464534  0.46394445  0.47771199    -0.13200
F1957       F  0.19827175  0.50671382  0.50357470    -0.13700
C1958       C  0.13292970  0.40968228  0.47295025     0.16000
C1959       C  0.12079622  0.38831472  0.45735182     0.25500
C1960       C  0.11733581  0.39133037  0.42834433    -0.40800
C1961       C  0.12958865  0.41420899  0.41469475     0.32400
C1962       C  0.14161465  0.43572351  0.43036810     0.14100
F1963       F  0.13351146  0.40760997  0.50121639    -0.13200
F1964       F  0.12667857  0.41744940  0.38666932    -0.13700
F1965       F  0.10987905  0.36588189  0.47083666    -0.16000
F1966       F  0.15030063  0.45925459  0.41716199    -0.14500
F1967       F  0.19444827  0.45728038  0.47610561    -0.14500
F1968       F  0.09766233  0.51316095  0.50489449    -0.16000
loop_ 
_geom_bond_atom_site_label_1 
_geom_bond_atom_site_label_2 
_geom_bond_distance 
_geom_bond_site_symmetry_2 
_ccdc_geom_bond_type 
O1          Cr19   2.008       .  S
O1            C9   1.269       .  A
O2          Cr19   1.962       .  S
O2            C3   1.254       .  A
C3            O4   1.273       .  A
C3         C1853   1.495       .  S
O4          Cr20   2.053       .  S
O5          Cr20   1.993       .  S
O5            C6   1.267       .  A
C6            O7   1.269       .  A
C6         C1873   1.482       .  S
O7          Cr21   2.012       .  S
O8          Cr21   1.940       .  S
O8            C9   1.252       .  A
C9         C1940   1.448       .  S
O10         Cr19   1.978       .  S
O10          C18   1.257       .  A
O11         Cr19   2.017       .  S
O11          C12   1.270       .  A
C12          O13   1.261       .  A
C12        C1893   1.478       .  S
O13         Cr20   1.965       .  S
O14         Cr20   2.047       .  S
O14          C15   1.273       .  A
C15          O16   1.254       .  A
C15        C1913   1.472       .  S
O16         Cr21   1.955       .  S
O17         Cr21   2.014       .  S
O17          C18   1.265       .  A
C18        C1953   1.494       .  S
Cr19         O22   1.762       .  S
Cr20         O22   1.773       .  S
Cr21         O22   1.761       .  S
O23         Cr41   1.961       .  S
O23          C31   1.260       .  A
O24         Cr41   1.987       .  S
O24          C25   1.258       .  A
C25          O26   1.264       .  A
C25        C1753   1.470       .  S
O26         Cr42   2.009       .  S
O27         Cr42   2.028       .  S
O27          C28   1.271       .  A
C28          O29   1.259       .  A
C28        C1780   1.499       .  S
O29         Cr43   1.974       .  S
O30         Cr43   1.991       .  S
O30          C31   1.266       .  A
C31        C1933   1.458       .  S
O32         Cr41   1.992       .  S
O32          C40   1.259       .  A
O33         Cr41   1.957       .  S
O33          C34   1.259       .  A
C34          O35   1.272       .  A
C34        C1793   1.472       .  S
O35         Cr42   2.022       .  S
O36         Cr42   1.989       .  S
O36          C37   1.261       .  A
C37          O38   1.262       .  A
C37        C1813   1.465       .  S
O38         Cr43   1.990       .  S
O39         Cr43   1.994       .  S
O39          C40   1.261       .  A
C40        C1840   1.484       .  S
Cr41         O44   1.765       .  S
Cr42         O44   1.767       .  S
Cr43         O44   1.763       .  S
O45         Cr63   1.966       .  S
O45          C53   1.260       .  A
O46         Cr63   1.993       .  S
O46          C47   1.258       .  A
C47          O48   1.268       .  A
C47        C1633   1.484       .  S
O48         Cr64   2.026       .  S
O49         Cr64   2.023       .  S
O49          C50   1.268       .  A
C50          O51   1.260       .  A
C50        C1653   1.500       .  S
O51         Cr65   1.980       .  S
O52         Cr65   1.991       .  S
O52          C53   1.267       .  A
C53        C1720   1.462       .  S
O54         Cr63   1.998       .  S
O54          C62   1.259       .  A
O55         Cr63   1.961       .  S
O55          C56   1.259       .  A
C56          O57   1.273       .  A
C56        C1680   1.480       .  S
O57         Cr64   2.023       .  S
O58         Cr64   2.006       .  S
O58          C59   1.267       .  A
C59          O60   1.264       .  A
C59        C1700   1.484       .  S
O60         Cr65   1.990       .  S
O61         Cr65   1.999       .  S
O61          C62   1.263       .  A
C62        C1740   1.494       .  S
Cr63         O66   1.768       .  S
Cr64         O66   1.766       .  S
Cr65         O66   1.760       .  S
O67         Cr85   2.007       .  S
O67          C75   1.268       .  A
O68         Cr85   1.955       .  S
O68          C69   1.253       .  A
C69          O70   1.276       .  A
C69        C1540   1.486       .  S
O70         Cr86   2.058       .  S
O71         Cr86   2.019       .  S
O71          C72   1.271       .  A
C72          O73   1.264       .  A
C72        C1560   1.502       .  S
O73         Cr87   1.995       .  S
O74         Cr87   1.956       .  S
O74          C75   1.257       .  A
C75        C1713   1.466       .  S
O76         Cr85   1.978       .  S
O76          C84   1.258       .  A
O77         Cr85   2.011       .  S
O77          C78   1.268       .  A
C78          O79   1.263       .  A
C78        C1580   1.492       .  S
O79         Cr86   1.988       .  S
O80         Cr86   2.046       .  S
O80          C81   1.274       .  A
C81          O82   1.254       .  A
C81        C1593   1.469       .  S
O82         Cr87   1.944       .  S
O83         Cr87   2.004       .  S
O83          C84   1.263       .  A
C84        C1620   1.474       .  S
Cr85         O88   1.763       .  S
Cr86         O88   1.778       .  S
Cr87         O88   1.756       .  S
O89        Cr107   2.000       .  S
O89          C97   1.267       .  A
O90        Cr107   1.960       .  S
O90          C91   1.252       .  A
C91          O92   1.272       .  A
C91        C1420   1.487       .  S
O92        Cr108   2.055       .  S
O93        Cr108   1.994       .  S
O93          C94   1.268       .  A
C94          O95   1.269       .  A
C94        C1433   1.483       .  S
O95        Cr109   2.008       .  S
O96        Cr109   1.951       .  S
O96          C97   1.254       .  A
C97        C1493   1.458       .  S
O98        Cr107   1.976       .  S
O98         C106   1.257       .  A
O99        Cr107   2.013       .  S
O99         C100   1.269       .  A
C100        O101   1.261       .  A
C100       C1453   1.475       .  S
O101       Cr108   1.967       .  S
O102       Cr108   2.037       .  S
O102        C103   1.270       .  A
C103        O104   1.253       .  A
C103       C1473   1.472       .  S
O104       Cr109   1.957       .  S
O105       Cr109   2.006       .  S
O105        C106   1.265       .  A
C106       C1520   1.477       .  S
Cr107       O110   1.762       .  S
Cr108       O110   1.775       .  S
Cr109       O110   1.757       .  S
O111       Cr129   1.975       .  S
O111        C119   1.262       .  A
O112       Cr129   1.992       .  S
O112        C113   1.259       .  A
C113        O114   1.265       .  A
C113       C1320   1.475       .  S
O114       Cr130   2.010       .  S
O115       Cr130   2.021       .  S
O115        C116   1.269       .  A
C116        O117   1.263       .  A
C116       C1333   1.502       .  S
O117       Cr131   1.990       .  S
O118       Cr131   1.989       .  S
O118        C119   1.265       .  A
C119       C1500   1.471       .  S
O120       Cr129   1.991       .  S
O120        C128   1.260       .  A
O121       Cr129   1.974       .  S
O121        C122   1.262       .  A
C122        O123   1.272       .  A
C122       C1353   1.483       .  S
O123       Cr130   2.023       .  S
O124       Cr130   1.991       .  S
O124        C125   1.263       .  A
C125        O126   1.261       .  A
C125       C1380   1.460       .  S
O126       Cr131   1.982       .  S
O127       Cr131   2.004       .  S
O127        C128   1.263       .  A
C128       C1400   1.493       .  S
Cr129       O132   1.769       .  S
Cr130       O132   1.770       .  S
Cr131       O132   1.769       .  S
O133       Cr151   1.976       .  S
O133        C141   1.261       .  A
O134       Cr151   1.981       .  S
O134        C135   1.255       .  A
C135        O136   1.269       .  A
C135       C1213   1.480       .  S
O136       Cr152   2.031       .  S
O137       Cr152   2.026       .  S
O137        C138   1.270       .  A
C138        O139   1.260       .  A
C138       C1233   1.501       .  S
O139       Cr153   1.980       .  S
O140       Cr153   1.977       .  S
O140        C141   1.263       .  A
C141       C1293   1.465       .  S
O142       Cr151   1.989       .  S
O142        C150   1.260       .  A
O143       Cr151   1.971       .  S
O143        C144   1.263       .  A
C144        O145   1.273       .  A
C144       C1260   1.491       .  S
O145       Cr152   2.025       .  S
O146       Cr152   2.014       .  S
O146        C147   1.268       .  A
C147        O148   1.260       .  A
C147       C1280   1.478       .  S
O148       Cr153   1.983       .  S
O149       Cr153   1.995       .  S
O149        C150   1.263       .  A
C150       C1600   1.488       .  S
Cr151       O154   1.765       .  S
Cr152       O154   1.762       .  S
Cr153       O154   1.765       .  S
O155       Cr173   1.988       .  S
O155        C163   1.264       .  A
O156       Cr173   1.965       .  S
O156        C157   1.257       .  A
C157        O158   1.272       .  A
C157       C1553   1.477       .  S
O158       Cr174   2.039       .  S
O159       Cr174   1.995       .  S
O159        C160   1.264       .  A
C160        O161   1.265       .  A
C160       C1140   1.485       .  S
O161       Cr175   2.007       .  S
O162       Cr175   1.960       .  S
O162        C163   1.257       .  A
C163       C1300   1.470       .  S
O164       Cr173   1.990       .  S
O164        C172   1.261       .  A
O165       Cr173   1.994       .  S
O165        C166   1.263       .  A
C166        O167   1.260       .  A
C166       C1153   1.465       .  S
O167       Cr174   1.978       .  S
O168       Cr174   2.037       .  S
O168        C169   1.272       .  A
C169        O170   1.254       .  A
C169       C1173   1.467       .  S
O170       Cr175   1.942       .  S
O171       Cr175   2.014       .  S
O171        C172   1.266       .  A
C172       C1193   1.492       .  S
Cr173       O176   1.767       .  S
Cr174       O176   1.781       .  S
Cr175       O176   1.762       .  S
O177       Cr195   1.977       .  S
O177        C185   1.262       .  A
O178       Cr195   1.986       .  S
O178        C179   1.257       .  A
C179        O180   1.268       .  A
C179       C1040   1.478       .  S
O180       Cr196   2.020       .  S
O181       Cr196   2.037       .  S
O181        C182   1.273       .  A
C182        O183   1.260       .  A
C182       C1060   1.506       .  S
O183       Cr197   1.977       .  S
O184       Cr197   1.982       .  S
O184        C185   1.264       .  A
C185       C1120   1.468       .  S
O186       Cr195   1.991       .  S
O186        C194   1.260       .  A
O187       Cr195   1.964       .  S
O187        C188   1.261       .  A
C188        O189   1.273       .  A
C188       C1080   1.490       .  S
O189       Cr196   2.029       .  S
O190       Cr196   2.000       .  S
O190        C191   1.264       .  A
C191        O192   1.260       .  A
C191       C1093   1.470       .  S
O192       Cr197   1.984       .  S
O193       Cr197   1.997       .  S
O193        C194   1.263       .  A
C194       C1820   1.486       .  S
Cr195       O198   1.767       .  S
Cr196       O198   1.768       .  S
Cr197       O198   1.767       .  S
O199       Cr217   1.967   1_455  S
O199        C207   1.260       .  A
O200       Cr217   1.988       .  S
O200        C201   1.258       .  A
C201        O202   1.268       .  A
C201       C1773   1.478       .  S
O202       Cr218   2.021       .  S
O203       Cr218   2.030       .  S
O203        C204   1.270       .  A
C204        O205   1.260       .  A
C204        C953   1.502       .  S
O205       Cr219   1.982       .  S
O206       Cr219   1.984   1_455  S
O206        C207   1.264       .  A
C207       C1113   1.457       .  S
O208       Cr217   1.986   1_455  S
O208        C216   1.259   1_455  A
O209       Cr217   1.959       .  S
O209        C210   1.258       .  A
C210        O211   1.271       .  A
C210        C973   1.484       .  S
O211       Cr218   2.025       .  S
O212       Cr218   2.005       .  S
O212        C213   1.266       .  A
C213        O214   1.263       .  A
C213       C1000   1.478       .  S
O214       Cr219   1.989       .  S
O215       Cr219   2.001       .  S
O215        C216   1.264       .  A
C216       C1020   1.485   1_655  S
Cr217       O220   1.769       .  S
Cr218       O220   1.769       .  S
Cr219       O220   1.765       .  S
O221       Cr239   1.974   1_565  S
O221        C229   1.260       .  A
O222       Cr239   1.987       .  S
O222        C223   1.257       .  A
C223        O224   1.268       .  A
C223       C1053   1.482       .  S
O224       Cr240   2.025       .  S
O225       Cr240   2.031       .  S
O225        C226   1.273       .  A
C226        O227   1.261       .  A
C226       C1640   1.503       .  S
O227       Cr241   1.981       .  S
O228       Cr241   1.983   1_565  S
O228        C229   1.263       .  A
C229        C933   1.469       .  S
O230       Cr239   1.998   1_565  S
O230        C238   1.263   1_565  A
O231       Cr239   1.967       .  S
O231        C232   1.262       .  A
C232        O233   1.273       .  A
C232       C1360   1.491       .  S
O233       Cr240   2.027       .  S
O234       Cr240   2.010       .  S
O234        C235   1.266       .  A
C235        O236   1.260       .  A
C235       C1613   1.477       .  S
O236       Cr241   1.982       .  S
O237       Cr241   2.000       .  S
O237        C238   1.264       .  A
C238       C1273   1.494   1_545  S
Cr239       O242   1.765       .  S
Cr240       O242   1.765       .  S
Cr241       O242   1.768       .  S
O243       Cr261   1.997       .  S
O243        C251   1.267       .  A
O244       Cr261   1.957       .  S
O244        C245   1.255       .  A
C245        O246   1.275       .  A
C245       C1240   1.487       .  S
O246       Cr262   2.052       .  S
O247       Cr262   2.006       .  S
O247        C248   1.267       .  A
C248        O249   1.265       .  A
C248       C1860   1.487       .  S
O249       Cr263   2.001       .  S
O250       Cr263   1.955       .  S
O250        C251   1.255       .  A
C251        C940   1.466       .  S
O252       Cr261   1.981       .  S
O252        C260   1.258       .  A
O253       Cr261   2.000       .  S
O253        C254   1.264       .  A
C254        O255   1.260       .  A
C254       C1460   1.481       .  S
O255       Cr262   1.975       .  S
O256       Cr262   2.040       .  S
O256        C257   1.273       .  A
C257        O258   1.255       .  A
C257       C1833   1.468       .  S
O258       Cr263   1.949       .  S
O259       Cr263   2.012       .  S
O259        C260   1.265       .  A
C260       C1100   1.485       .  S
Cr261       O264   1.763       .  S
Cr262       O264   1.773       .  S
Cr263       O264   1.756       .  S
O265       Cr283   1.973       .  S
O265        C273   1.260       .  A
O266       Cr283   1.982       .  S
O266        C267   1.256       .  A
C267        O268   1.270       .  A
C267       C1133   1.476       .  S
O268       Cr284   2.028       .  S
O269       Cr284   2.022       .  S
O269        C270   1.269       .  A
C270        O271   1.259       .  A
C270        C873   1.498       .  S
O271       Cr285   1.978       .  S
O272       Cr285   1.975       .  S
O272        C273   1.264       .  A
C273        C913   1.456       .  S
O274       Cr283   1.987       .  S
O274        C282   1.258       .  A
O275       Cr283   1.970       .  S
O275        C276   1.261       .  A
C276        O277   1.271       .  A
C276       C1073   1.475       .  S
O277       Cr284   2.020       .  S
O278       Cr284   2.015       .  S
O278        C279   1.269       .  A
C279        O280   1.262       .  A
C279        C900   1.486       .  S
O280       Cr285   1.983       .  S
O281       Cr285   1.990       .  S
O281        C282   1.261       .  A
C282       C1480   1.482       .  S
Cr283       O286   1.769       .  S
Cr284       O286   1.765       .  S
Cr285       O286   1.762       .  S
O287       Cr305   1.980       .  S
O287        C295   1.263       .  A
O288       Cr305   1.977       .  S
O288        C289   1.256       .  A
C289        O290   1.270       .  A
C289       C1440   1.474       .  S
O290       Cr306   2.023       .  S
O291       Cr306   2.028       .  S
O291        C292   1.271       .  A
C292        O293   1.261       .  A
C292        C840   1.497       .  S
O293       Cr307   1.980       .  S
O294       Cr307   1.966       .  S
O294        C295   1.262       .  A
C295        C920   1.458       .  S
O296       Cr305   1.978       .  S
O296        C304   1.258       .  A
O297       Cr305   1.969       .  S
O297        C298   1.262       .  A
C298        O299   1.268       .  A
C298        C980   1.477       .  S
O299       Cr306   2.006       .  S
O300       Cr306   2.007       .  S
O300        C301   1.263       .  A
C301        O302   1.257       .  A
C301        C853   1.467       .  S
O302       Cr307   1.977       .  S
O303       Cr307   2.003       .  S
O303        C304   1.264       .  A
C304       C1180   1.477       .  S
Cr305       O308   1.762       .  S
Cr306       O308   1.764       .  S
Cr307       O308   1.764       .  S
O309       Cr327   1.968   1_556  S
O309        C317   1.264       .  A
O310       Cr327   1.991       .  S
O310        C311   1.255       .  A
C311        O312   1.266       .  A
C311        C793   1.485       .  S
O312       Cr328   2.027       .  S
O313       Cr328   2.007       .  S
O313        C314   1.266       .  A
C314        O315   1.260       .  A
C314       C1313   1.499       .  S
O315       Cr329   1.984       .  S
O316       Cr329   1.988   1_556  S
O316        C317   1.268       .  A
C317        C820   1.468       .  S
O318       Cr327   1.990       .  S
O318        C326   1.257       .  A
O319       Cr327   1.960       .  S
O319        C320   1.263       .  A
C320        O321   1.273       .  A
C320       C1800   1.476       .  S
O321       Cr328   2.016       .  S
O322       Cr328   1.993       .  S
O322        C323   1.264       .  A
C323        O324   1.264       .  A
C323       C1513   1.473       .  S
O324       Cr329   1.984       .  S
O325       Cr329   2.008       .  S
O325        C326   1.263       .  A
C326        C893   1.493       .  S
Cr327       O330   1.770       .  S
Cr328       O330   1.771       .  S
Cr329       O330   1.769       .  S
O331       Cr349   1.993       .  S
O331        C339   1.264       .  A
O332       Cr349   1.962       .  S
O332        C333   1.255       .  A
C333        O334   1.274       .  A
C333        C880   1.480       .  S
O334       Cr350   2.048       .  S
O335       Cr350   1.991       .  S
O335        C336   1.264       .  A
C336        O337   1.269       .  A
C336       C1533   1.488       .  S
O337       Cr351   2.019       .  S
O338       Cr351   1.959       .  S
O338        C339   1.256       .  A
C339        C813   1.457       .  S
O340       Cr349   1.986       .  S
O340        C348   1.262       .  A
O341       Cr349   2.005       .  S
O341        C342   1.265       .  A
C342        O343   1.262       .  A
C342       C1900   1.487       .  S
O343       Cr350   1.979       .  S
O344       Cr350   2.044       .  S
O344        C345   1.273       .  A
C345        O346   1.253       .  A
C345       C1733   1.474       .  S
O346       Cr351   1.952       .  S
O347       Cr351   2.015       .  S
O347        C348   1.268       .  A
C348        C773   1.488       .  S
Cr349       O352   1.766       .  S
Cr350       O352   1.778       .  S
Cr351       O352   1.761       .  S
O353       Cr371   1.968       .  S
O353        C361   1.262       .  A
O354       Cr371   1.988       .  S
O354        C355   1.257       .  A
C355        O356   1.269       .  A
C355        C713   1.483       .  S
O356       Cr372   2.026       .  S
O357       Cr372   2.023       .  S
O357        C358   1.268       .  A
C358        O359   1.260       .  A
C358        C800   1.498       .  S
O359       Cr373   1.983       .  S
O360       Cr373   1.989       .  S
O360        C361   1.266       .  A
C361        C760   1.470       .  S
O362       Cr371   1.985       .  S
O362        C370   1.258       .  A
O363       Cr371   1.963       .  S
O363        C364   1.260       .  A
C364        O365   1.270       .  A
C364        C740   1.476       .  S
O365       Cr372   2.017       .  S
O366       Cr372   2.004       .  S
O366        C367   1.265       .  A
C367        O368   1.263       .  A
C367        C780   1.475       .  S
O368       Cr373   1.991       .  S
O369       Cr373   2.004       .  S
O369        C370   1.263       .  A
C370       C1693   1.486       .  S
Cr371       O374   1.768       .  S
Cr372       O374   1.774       .  S
Cr373       O374   1.770       .  S
O375       Cr393   1.999   1_545  S
O375        C383   1.266       .  A
O376       Cr393   1.945       .  S
O376        C377   1.252       .  A
C377        O378   1.278       .  A
C377       C1660   1.488       .  S
O378       Cr394   2.065       .  S
O379       Cr394   1.998       .  S
O379        C380   1.265       .  A
C380        O381   1.265       .  A
C380       C1033   1.488       .  S
O381       Cr395   2.006       .  S
O382       Cr395   1.962   1_545  S
O382        C383   1.257       .  A
C383        C753   1.463       .  S
O384       Cr393   1.969       .  S
O384        C392   1.256       .  A
O385       Cr393   2.009       .  S
O385        C386   1.265       .  A
C386        O387   1.259       .  A
C386        C680   1.481       .  S
O387       Cr394   1.976       .  S
O388       Cr394   2.051       .  S
O388        C389   1.277       .  A
C389        O390   1.255       .  A
C389       C1013   1.479       .  S
O390       Cr395   1.943       .  S
O391       Cr395   2.014       .  S
O391        C392   1.267       .  A
C392        C693   1.482   1_565  S
Cr393       O396   1.762       .  S
Cr394       O396   1.775       .  S
Cr395       O396   1.762       .  S
O397       Cr415   1.976       .  S
O397        C405   1.260       .  A
O398       Cr415   1.994       .  S
O398        C399   1.260       .  A
C399        O400   1.265       .  A
C399       C1880   1.476       .  S
O400       Cr416   2.008       .  S
O401       Cr416   2.036       .  S
O401        C402   1.272       .  A
C402        O403   1.259       .  A
C402       C1220   1.500       .  S
O403       Cr417   1.975       .  S
O404       Cr417   1.993       .  S
O404        C405   1.264       .  A
C405        C653   1.476       .  S
O406       Cr415   1.999       .  S
O406        C414   1.264       .  A
O407       Cr415   1.975       .  S
O407        C408   1.262       .  A
C408        O409   1.272       .  A
C408        C673   1.495       .  S
O409       Cr416   2.025       .  S
O410       Cr416   2.000       .  S
O410        C411   1.263       .  A
C411        O412   1.263       .  A
C411       C1200   1.474       .  S
O412       Cr417   1.994       .  S
O413       Cr417   1.995       .  S
O413        C414   1.263       .  A
C414        C860   1.485       .  S
Cr415       O418   1.767       .  S
Cr416       O418   1.770       .  S
Cr417       O418   1.770       .  S
O419       Cr437   1.996       .  S
O419        C427   1.266       .  A
O420       Cr437   1.956       .  S
O420        C421   1.255       .  A
C421        O422   1.274       .  A
C421        C833   1.483       .  S
O422       Cr438   2.049       .  S
O423       Cr438   1.999       .  S
O423        C424   1.266       .  A
C424        O425   1.265       .  A
C424        C613   1.484       .  S
O425       Cr439   2.001       .  S
O426       Cr439   1.967       .  S
O426        C427   1.259       .  A
C427        C660   1.465       .  S
O428       Cr437   1.985       .  S
O428        C436   1.259       .  A
O429       Cr437   1.997       .  S
O429        C430   1.263       .  A
C430        O431   1.259       .  A
C430        C733   1.481       .  S
O431       Cr438   1.976       .  S
O432       Cr438   2.032       .  S
O432        C433   1.271       .  A
C433        O434   1.258       .  A
C433        C633   1.469       .  S
O434       Cr439   1.956       .  S
O435       Cr439   2.009       .  S
O435        C436   1.265       .  A
C436       C1920   1.492       .  S
Cr437       O440   1.764       .  S
Cr438       O440   1.778       .  S
Cr439       O440   1.762       .  S
O441       Cr459   2.000   1_655  S
O441        C449   1.268       .  A
O442       Cr459   1.958       .  S
O442        C443   1.253       .  A
C443        O444   1.272       .  A
C443        C573   1.484       .  S
O444       Cr460   2.048       .  S
O445       Cr460   1.993       .  S
O445        C446   1.266       .  A
C446        O447   1.264       .  A
C446       C1760   1.471       .  S
O447       Cr461   1.993       .  S
O448       Cr461   1.964       .  S
O448        C449   1.259   1_455  A
C449        C600   1.464       .  S
O450       Cr459   1.977       .  S
O450        C458   1.258       .  A
O451       Cr459   2.004       .  S
O451        C452   1.270       .  A
C452        O453   1.255       .  A
C452       C1673   1.477       .  S
O453       Cr460   1.967       .  S
O454       Cr460   2.036       .  S
O454        C455   1.271       .  A
C455        O456   1.258       .  A
C455       C1960   1.472       .  S
O456       Cr461   1.961       .  S
O457       Cr461   1.997       .  S
O457        C458   1.261       .  A
C458        C640   1.483       .  S
Cr459       O462   1.761       .  S
Cr460       O462   1.777       .  S
Cr461       O462   1.759       .  S
O463       Cr481   1.989       .  S
O463        C471   1.264       .  A
O464       Cr481   1.979       .  S
O464        C465   1.257       .  A
C465        O466   1.269       .  A
C465        C620   1.474       .  S
O466       Cr482   2.019       .  S
O467       Cr482   2.044       .  S
O467        C468   1.275       .  A
C468        O469   1.262       .  A
C468       C1413   1.506       .  S
O469       Cr483   1.980       .  S
O470       Cr483   1.983       .  S
O470        C471   1.262       .  A
C471        C593   1.479       .  S
O472       Cr481   1.989       .  S
O472        C480   1.261       .  A
O473       Cr481   1.977       .  S
O473        C474   1.263       .  A
C474        O475   1.273       .  A
C474       C1573   1.498       .  S
O475       Cr482   2.031       .  S
O476       Cr482   2.009       .  S
O476        C477   1.265       .  A
C477        O478   1.258       .  A
C477       C1393   1.473       .  S
O478       Cr483   1.982       .  S
O479       Cr483   1.998       .  S
O479        C480   1.264       .  A
C480        C553   1.486       .  S
Cr481       O484   1.766       .  S
Cr482       O484   1.768       .  S
Cr483       O484   1.768       .  S
O485       Cr503   2.011       .  S
O485        C493   1.270       .  A
O486       Cr503   1.948       .  S
O486        C487   1.252       .  A
C487        O488   1.275       .  A
C487        C960   1.489       .  S
O488       Cr504   2.056       .  S
O489       Cr504   1.999       .  S
O489        C490   1.264       .  A
C490        O491   1.263       .  A
C490        C580   1.482       .  S
O491       Cr505   2.004       .  S
O492       Cr505   1.953       .  S
O492        C493   1.258       .  A
C493        C533   1.465       .  S
O494       Cr503   1.978       .  S
O494        C502   1.255       .  A
O495       Cr503   2.006       .  S
O495        C496   1.266       .  A
C496        O497   1.259       .  A
C496       C1253   1.477       .  S
O497       Cr504   1.972       .  S
O498       Cr504   2.048       .  S
O498        C499   1.277       .  A
C499        O500   1.259       .  A
C499        C560   1.474       .  S
O500       Cr505   1.951       .  S
O501       Cr505   2.009       .  S
O501        C502   1.263       .  A
C502       C1373   1.484       .  S
Cr503       O506   1.765       .  S
Cr504       O506   1.777       .  S
Cr505       O506   1.765       .  S
O507       Cr525   1.993   1_554  S
O507        C515   1.266       .  A
O508       Cr525   1.963       .  S
O508        C509   1.253       .  A
C509        O510   1.274       .  A
C509       C1340   1.489       .  S
O510       Cr526   2.055       .  S
O511       Cr526   2.002       .  S
O511        C512   1.268       .  A
C512        O513   1.267       .  A
C512        C720   1.486       .  S
O513       Cr527   2.006       .  S
O514       Cr527   1.959   1_554  S
O514        C515   1.256       .  A
C515        C540   1.461       .  S
O516       Cr525   1.977       .  S
O516        C524   1.258       .  A
O517       Cr525   2.004       .  S
O517        C518   1.266       .  A
C518        O519   1.262       .  A
C518       C1160   1.482       .  S
O519       Cr526   1.976       .  S
O520       Cr526   2.042       .  S
O520        C521   1.273       .  A
C521        O522   1.257       .  A
C521        C700   1.474       .  S
O522       Cr527   1.957       .  S
O523       Cr527   2.012       .  S
O523        C524   1.265       .  A
C524        C993   1.486   1_556  S
Cr525       O528   1.763       .  S
Cr526       O528   1.774       .  S
Cr527       O528   1.762       .  S
C529        C530   1.399       .  A
C529        C534   1.393       .  A
C529        F547   1.358       .  S
C530        C535   1.458       .  S
C530        C531   1.402       .  A
C531        C532   1.392       .  A
C531        F536   1.359       .  S
C532        C533   1.405       .  A
C532        F548   1.358       .  S
C533        C534   1.408       .  A
C534        F537   1.358       .  S
C535        C538   1.400       .  A
C535        C542   1.401       .  A
C538        C539   1.398       .  A
C538        F543   1.357       .  S
C539        C540   1.409       .  A
C539        F545   1.358       .  S
C540        C541   1.403       .  A
C541        C542   1.385       .  A
C541        F544   1.359       .  S
C542        F546   1.359       .  S
C549        C550   1.409       .  A
C549        C554   1.402       .  A
C549        F567   1.358       .  S
C550        C555   1.483       .  S
C550        C551   1.401       .  A
C551        C552   1.397       .  A
C551        F556   1.358       .  S
C552        C553   1.414       .  A
C552        F568   1.358       .  S
C553        C554   1.407       .  A
C554        F557   1.358       .  S
C555        C558   1.409       .  A
C555        C562   1.403       .  A
C558        C559   1.403       .  A
C558        F563   1.358       .  S
C559        C560   1.404       .  A
C559        F565   1.358       .  S
C560        C561   1.407       .  A
C561        C562   1.398       .  A
C561        F564   1.358       .  S
C562        F566   1.358       .  S
C569        C570   1.411   1_455  A
C569        C574   1.408       .  A
C569        F587   1.358       .  S
C570        C575   1.497       .  S
C570        C571   1.408       .  A
C571        C572   1.400   1_655  A
C571        F576   1.358       .  S
C572        C573   1.407       .  A
C572        F588   1.358   1_455  S
C573        C574   1.407       .  A
C574        F577   1.358       .  S
C575        C578   1.410       .  A
C575        C582   1.409       .  A
C578        C579   1.404       .  A
C578        F583   1.357       .  S
C579        C580   1.404       .  A
C579        F585   1.358       .  S
C580        C581   1.407       .  A
C581        C582   1.405       .  A
C581        F584   1.358       .  S
C582        F586   1.358       .  S
C589        C590   1.404       .  A
C589        C594   1.399       .  A
C589        F607   1.358       .  S
C590        C595   1.466       .  S
C590        C591   1.397       .  A
C591        C592   1.392       .  A
C591        F596   1.358       .  S
C592        C593   1.413       .  A
C592        F608   1.358       .  S
C593        C594   1.408       .  A
C594        F597   1.358       .  S
C595        C598   1.403       .  A
C595        C602   1.401       .  A
C598        C599   1.391       .  A
C598        F603   1.358       .  S
C599        C600   1.403       .  A
C599        F605   1.359       .  S
C600        C601   1.408       .  A
C601        C602   1.398       .  A
C601        F604   1.358       .  S
C602        F606   1.357       .  S
C609        C610   1.406       .  A
C609        C614   1.401       .  A
C609        F627   1.358       .  S
C610        C615   1.496       .  S
C610        C611   1.412       .  A
C611        C612   1.408       .  A
C611        F616   1.358       .  S
C612        C613   1.406       .  A
C612        F628   1.358       .  S
C613        C614   1.407       .  A
C614        F617   1.358       .  S
C615        C618   1.410       .  A
C615        C622   1.409       .  A
C618        C619   1.401       .  A
C618        F623   1.358       .  S
C619        C620   1.404       .  A
C619        F625   1.358       .  S
C620        C621   1.407       .  A
C621        C622   1.406       .  A
C621        F624   1.358       .  S
C622        F626   1.358       .  S
C629        C630   1.406       .  A
C629        C634   1.402       .  A
C629        F647   1.358       .  S
C630        C635   1.473       .  S
C630        C631   1.401       .  A
C631        C632   1.395       .  A
C631        F636   1.358   1_655  S
C632        C633   1.405       .  A
C632        F648   1.358       .  S
C633        C634   1.405       .  A
C634        F637   1.358       .  S
C635        C638   1.401       .  A
C635        C642   1.402       .  A
C638        C639   1.393       .  A
C638        F643   1.359       .  S
C639        C640   1.410   1_655  A
C639        F645   1.358   1_655  S
C640        C641   1.412   1_455  A
C641        C642   1.402       .  A
C641        F644   1.358       .  S
C642        F646   1.357       .  S
C649        C650   1.398       .  A
C649        C654   1.395       .  A
C649        F667   1.358       .  S
C650        C655   1.462       .  S
C650        C651   1.402       .  A
C651        C652   1.393       .  A
C651        F656   1.358       .  S
C652        C653   1.408       .  A
C652        F668   1.358       .  S
C653        C654   1.412       .  A
C654        F657   1.358       .  S
C655        C658   1.400       .  A
C655        C662   1.402       .  A
C658        C659   1.396       .  A
C658        F663   1.357       .  S
C659        C660   1.407       .  A
C659        F665   1.358       .  S
C660        C661   1.405       .  A
C661        C662   1.391       .  A
C661        F664   1.359       .  S
C662        F666   1.359       .  S
C669        C670   1.405       .  A
C669        C674   1.401   1_455  A
C669        F687   1.358       .  S
C670        C675   1.488       .  S
C670        C671   1.405       .  A
C671        C672   1.402   1_455  A
C671        F676   1.358       .  S
C672        C673   1.414       .  A
C672        F688   1.358       .  S
C673        C674   1.412       .  A
C674        F677   1.357       .  S
C675        C678   1.407       .  A
C675        C682   1.407       .  A
C678        C679   1.401       .  A
C678        F683   1.358       .  S
C679        C680   1.407       .  A
C679        F685   1.358       .  S
C680        C681   1.407       .  A
C681        C682   1.401       .  A
C681        F684   1.358       .  S
C682        F686   1.358       .  S
C689        C690   1.403       .  A
C689        C694   1.394   1_655  A
C689        F707   1.358       .  S
C690        C695   1.474       .  S
C690        C691   1.401       .  A
C691        C692   1.402   1_655  A
C691        F696   1.357       .  S
C692        C693   1.414       .  A
C692        F708   1.358       .  S
C693        C694   1.407       .  A
C694        F697   1.358       .  S
C695        C698   1.405       .  A
C695        C702   1.401       .  A
C698        C699   1.402       .  A
C698        F703   1.358       .  S
C699        C700   1.407       .  A
C699        F705   1.358       .  S
C700        C701   1.407       .  A
C701        C702   1.397       .  A
C701        F704   1.358       .  S
C702        F706   1.358   1_545  S
C709        C710   1.409       .  A
C709        C714   1.408   1_655  A
C709        F727   1.357       .  S
C710        C715   1.496       .  S
C710        C711   1.407   1_655  A
C711        C712   1.403       .  A
C711        F716   1.358       .  S
C712        C713   1.407       .  A
C712        F728   1.357       .  S
C713        C714   1.407       .  A
C714        F717   1.357   1_455  S
C715        C718   1.411       .  A
C715        C722   1.407       .  A
C718        C719   1.407       .  A
C718        F723   1.358       .  S
C719        C720   1.406       .  A
C719        F725   1.358       .  S
C720        C721   1.408       .  A
C721        C722   1.403       .  A
C721        F724   1.358       .  S
C722        F726   1.358       .  S
C729        C730   1.403       .  A
C729        C734   1.397       .  A
C729        F747   1.358       .  S
C730        C735   1.473       .  S
C730        C731   1.401       .  A
C731        C732   1.395       .  A
C731        F736   1.358       .  S
C732        C733   1.412       .  A
C732        F748   1.358       .  S
C733        C734   1.410       .  A
C734        F737   1.358       .  S
C735        C738   1.402   1_655  A
C735        C742   1.404       .  A
C738        C739   1.394       .  A
C738        F743   1.358       .  S
C739        C740   1.409       .  A
C739        F745   1.358       .  S
C740        C741   1.409       .  A
C741        C742   1.397   1_455  A
C741        F744   1.358       .  S
C742        F746   1.358       .  S
C749        C750   1.399       .  A
C749        C754   1.395       .  A
C749        F767   1.358       .  S
C750        C755   1.458       .  S
C750        C751   1.401       .  A
C751        C752   1.390       .  A
C751        F756   1.358       .  S
C752        C753   1.404       .  A
C752        F768   1.359       .  S
C753        C754   1.408       .  A
C754        F757   1.358       .  S
C755        C758   1.396       .  A
C755        C762   1.401       .  A
C758        C759   1.392       .  A
C758        F763   1.358       .  S
C759        C760   1.411       .  A
C759        F765   1.358       .  S
C760        C761   1.408       .  A
C761        C762   1.393       .  A
C761        F764   1.358       .  S
C762        F766   1.358       .  S
C769        C770   1.406       .  A
C769        C774   1.400       .  A
C769        F787   1.358       .  S
C770        C775   1.487       .  S
C770        C771   1.406       .  A
C771        C772   1.406       .  A
C771        F776   1.358       .  S
C772        C773   1.411       .  A
C772        F788   1.358       .  S
C773        C774   1.408       .  A
C774        F777   1.358       .  S
C775        C778   1.406       .  A
C775        C782   1.408       .  A
C778        C779   1.400       .  A
C778        F783   1.358       .  S
C779        C780   1.405       .  A
C779        F785   1.358       .  S
C780        C781   1.406       .  A
C781        C782   1.405       .  A
C781        F784   1.358       .  S
C782        F786   1.357       .  S
C789        C790   1.411       .  A
C789        C794   1.408   1_556  A
C789        F807   1.357       .  S
C790        C795   1.500       .  S
C790        C791   1.408   1_556  A
C791        C792   1.404       .  A
C791        F796   1.358       .  S
C792        C793   1.409       .  A
C792        F808   1.358       .  S
C793        C794   1.406       .  A
C794        F797   1.357   1_554  S
C795        C798   1.407       .  A
C795        C802   1.409       .  A
C798        C799   1.406       .  A
C798        F803   1.357       .  S
C799        C800   1.413       .  A
C799        F805   1.358       .  S
C800        C801   1.411       .  A
C801        C802   1.404       .  A
C801        F804   1.358       .  S
C802        F806   1.358       .  S
C809        C810   1.398       .  A
C809        C814   1.393       .  A
C809        F827   1.358       .  S
C810        C815   1.456       .  S
C810        C811   1.402       .  A
C811        C812   1.390       .  A
C811        F816   1.359       .  S
C812        C813   1.403       .  A
C812        F828   1.359       .  S
C813        C814   1.406       .  A
C814        F817   1.358       .  S
C815        C818   1.396       .  A
C815        C822   1.401       .  A
C818        C819   1.388       .  A
C818        F823   1.358       .  S
C819        C820   1.411       .  A
C819        F825   1.359       .  S
C820        C821   1.408       .  A
C821        C822   1.393       .  A
C821        F824   1.358       .  S
C822        F826   1.358       .  S
C829        C830   1.410       .  A
C829        C834   1.408       .  A
C829        F847   1.358       .  S
C830        C835   1.493       .  S
C830        C831   1.406       .  A
C831        C832   1.399       .  A
C831        F836   1.358       .  S
C832        C833   1.406       .  A
C832        F848   1.358       .  S
C833        C834   1.409       .  A
C834        F837   1.358       .  S
C835        C838   1.407       .  A
C835        C842   1.406       .  A
C838        C839   1.403       .  A
C838        F843   1.358       .  S
C839        C840   1.411       .  A
C839        F845   1.357       .  S
C840        C841   1.413       .  A
C841        C842   1.404       .  A
C841        F844   1.358       .  S
C842        F846   1.358       .  S
C849        C850   1.406       .  A
C849        C854   1.396       .  A
C849        F867   1.358       .  S
C850        C855   1.482       .  S
C850        C851   1.405       .  A
C851        C852   1.404       .  A
C851        F856   1.358       .  S
C852        C853   1.409       .  A
C852        F868   1.359       .  S
C853        C854   1.401       .  A
C854        F857   1.358       .  S
C855        C858   1.408       .  A
C855        C862   1.401       .  A
C858        C859   1.406       .  A
C858        F863   1.358       .  S
C859        C860   1.409       .  A
C859        F865   1.358       .  S
C860        C861   1.409       .  A
C861        C862   1.397       .  A
C861        F864   1.357       .  S
C862        F866   1.358       .  S
C869        C870   1.406       .  A
C869        C874   1.405       .  A
C869        F887   1.358       .  S
C870        C875   1.494       .  S
C870        C871   1.407       .  A
C871        C872   1.402       .  A
C871        F876   1.358       .  S
C872        C873   1.412       .  A
C872        F888   1.358       .  S
C873        C874   1.414       .  A
C874        F877   1.358       .  S
C875        C878   1.408       .  A
C875        C882   1.409       .  A
C878        C879   1.403       .  A
C878        F883   1.358       .  S
C879        C880   1.407       .  A
C879        F885   1.358       .  S
C880        C881   1.407       .  A
C881        C882   1.404       .  A
C881        F884   1.358       .  S
C882        F886   1.358       .  S
C889        C890   1.401       .  A
C889        C894   1.403       .  A
C889        F907   1.358       .  S
C890        C895   1.487       .  S
C890        C891   1.408       .  A
C891        C892   1.405   1_556  A
C891        F896   1.358       .  S
C892        C893   1.408       .  A
C892        F908   1.357       .  S
C893        C894   1.415   1_554  A
C894        F897   1.358   1_556  S
C895        C898   1.409       .  A
C895        C902   1.402       .  A
C898        C899   1.410       .  A
C898        F903   1.357       .  S
C899        C900   1.409       .  A
C899        F905   1.358       .  S
C900        C901   1.410       .  A
C901        C902   1.396       .  A
C901        F904   1.359       .  S
C902        F906   1.358       .  S
C909        C910   1.399       .  A
C909        C914   1.390       .  A
C909        F927   1.358       .  S
C910        C915   1.461       .  S
C910        C911   1.405       .  A
C911        C912   1.391       .  A
C911        F916   1.359       .  S
C912        C913   1.402       .  A
C912        F928   1.358       .  S
C913        C914   1.406       .  A
C914        F917   1.358       .  S
C915        C918   1.397       .  A
C915        C922   1.407       .  A
C918        C919   1.388       .  A
C918        F923   1.358       .  S
C919        C920   1.410       .  A
C919        F925   1.359       .  S
C920        C921   1.401       .  A
C921        C922   1.392       .  A
C921        F924   1.358       .  S
C922        F926   1.358       .  S
C929        C930   1.402       .  A
C929        C934   1.392       .  A
C929        F947   1.358       .  S
C930        C935   1.454       .  S
C930        C931   1.395       .  A
C931        C932   1.389       .  A
C931        F936   1.358       .  S
C932        C933   1.412       .  A
C932        F948   1.358       .  S
C933        C934   1.407       .  A
C934        F937   1.358       .  S
C935        C938   1.400       .  A
C935        C942   1.396       .  A
C938        C939   1.386       .  A
C938        F943   1.359       .  S
C939        C940   1.406       .  A
C939        F945   1.359       .  S
C940        C941   1.412       .  A
C941        C942   1.394       .  A
C941        F944   1.358       .  S
C942        F946   1.357       .  S
C949        C950   1.407       .  A
C949        C954   1.407       .  A
C949        F967   1.358       .  S
C950        C955   1.494       .  S
C950        C951   1.404       .  A
C951        C952   1.405       .  A
C951        F956   1.357       .  S
C952        C953   1.414       .  A
C952        F968   1.357   1_655  S
C953        C954   1.413       .  A
C954        F957   1.358       .  S
C955        C958   1.409       .  A
C955        C962   1.404       .  A
C958        C959   1.411       .  A
C958        F963   1.357       .  S
C959        C960   1.409   1_565  A
C959        F965   1.357       .  S
C960        C961   1.411       .  A
C961        C962   1.400   1_545  A
C961        F964   1.359       .  S
C962        F966   1.358       .  S
C969        C970   1.400       .  A
C969        C974   1.396       .  A
C969        F987   1.358       .  S
C970        C975   1.466       .  S
C970        C971   1.399       .  A
C971        C972   1.396       .  A
C971        F976   1.358   1_554  S
C972        C973   1.414       .  A
C972        F988   1.358       .  S
C973        C974   1.411       .  A
C974        F977   1.357       .  S
C975        C978   1.400   1_554  A
C975        C982   1.400       .  A
C978        C979   1.395       .  A
C978        F983   1.358       .  S
C979        C980   1.410       .  A
C979        F985   1.358       .  S
C980        C981   1.411       .  A
C981        C982   1.396   1_556  A
C981        F984   1.358       .  S
C982        F986   1.358       .  S
C989        C990   1.402       .  A
C989        C994   1.403       .  A
C989       F1007   1.358       .  S
C990        C995   1.479       .  S
C990        C991   1.404       .  A
C991        C992   1.399       .  A
C991        F996   1.358       .  S
C992        C993   1.409   1_565  A
C992       F1008   1.358   1_564  S
C993        C994   1.412   1_545  A
C994        F997   1.358   1_565  S
C995        C998   1.405       .  A
C995       C1002   1.402       .  A
C998        C999   1.405       .  A
C998       F1003   1.357       .  S
C999       C1000   1.407       .  A
C999       F1005   1.358       .  S
C1000      C1001   1.408       .  A
C1001      C1002   1.396       .  A
C1001      F1004   1.359       .  S
C1002      F1006   1.358       .  S
C1009      C1010   1.409       .  A
C1009      C1014   1.406       .  A
C1009      F1027   1.358       .  S
C1010      C1015   1.482       .  S
C1010      C1011   1.401       .  A
C1011      C1012   1.396       .  A
C1011      F1016   1.358       .  S
C1012      C1013   1.410       .  A
C1012      F1028   1.359       .  S
C1013      C1014   1.405       .  A
C1014      F1017   1.357       .  S
C1015      C1018   1.408       .  A
C1015      C1022   1.400       .  A
C1018      C1019   1.402   1_556  A
C1018      F1023   1.358       .  S
C1019      C1020   1.406       .  A
C1019      F1025   1.358       .  S
C1020      C1021   1.413       .  A
C1021      C1022   1.399   1_554  A
C1021      F1024   1.358       .  S
C1022      F1026   1.358       .  S
C1029      C1030   1.413       .  A
C1029      C1034   1.406       .  A
C1029      F1047   1.358       .  S
C1030      C1035   1.501       .  S
C1030      C1031   1.409       .  A
C1031      C1032   1.404       .  A
C1031      F1036   1.358       .  S
C1032      C1033   1.408       .  A
C1032      F1048   1.358       .  S
C1033      C1034   1.406       .  A
C1034      F1037   1.358       .  S
C1035      C1038   1.410       .  A
C1035      C1042   1.412   1_556  A
C1038      C1039   1.405       .  A
C1038      F1043   1.358       .  S
C1039      C1040   1.407   1_556  A
C1039      F1045   1.358       .  S
C1040      C1041   1.404       .  A
C1041      C1042   1.404       .  A
C1041      F1044   1.358       .  S
C1042      F1046   1.357       .  S
C1049      C1050   1.410   1_545  A
C1049      C1054   1.404       .  A
C1049      F1067   1.358       .  S
C1050      C1055   1.505       .  S
C1050      C1051   1.413       .  A
C1051      C1052   1.408       .  A
C1051      F1056   1.357       .  S
C1052      C1053   1.406   1_565  A
C1052      F1068   1.358       .  S
C1053      C1054   1.406       .  A
C1054      F1057   1.358       .  S
C1055      C1058   1.411       .  A
C1055      C1062   1.408       .  A
C1058      C1059   1.405       .  A
C1058      F1063   1.358       .  S
C1059      C1060   1.411       .  A
C1059      F1065   1.357       .  S
C1060      C1061   1.417       .  A
C1061      C1062   1.407       .  A
C1061      F1064   1.358       .  S
C1062      F1066   1.358       .  S
C1069      C1070   1.403       .  A
C1069      C1074   1.398       .  A
C1069      F1087   1.358   1_556  S
C1070      C1075   1.474       .  S
C1070      C1071   1.402       .  A
C1071      C1072   1.398       .  A
C1071      F1076   1.358       .  S
C1072      C1073   1.408       .  A
C1072      F1088   1.358       .  S
C1073      C1074   1.407       .  A
C1074      F1077   1.358       .  S
C1075      C1078   1.402   1_556  A
C1075      C1082   1.399   1_556  A
C1078      C1079   1.401       .  A
C1078      F1083   1.358   1_554  S
C1079      C1080   1.413       .  A
C1079      F1085   1.357       .  S
C1080      C1081   1.415       .  A
C1081      C1082   1.396       .  A
C1081      F1084   1.358       .  S
C1082      F1086   1.358   1_554  S
C1089      C1090   1.405       .  A
C1089      C1094   1.403       .  A
C1089      F1107   1.357       .  S
C1090      C1095   1.477       .  S
C1090      C1091   1.403       .  A
C1091      C1092   1.397       .  A
C1091      F1096   1.358       .  S
C1092      C1093   1.405       .  A
C1092      F1108   1.359       .  S
C1093      C1094   1.405       .  A
C1094      F1097   1.358       .  S
C1095      C1098   1.402       .  A
C1095      C1102   1.403       .  A
C1098      C1099   1.403       .  A
C1098      F1103   1.357       .  S
C1099      C1100   1.411       .  A
C1099      F1105   1.358       .  S
C1100      C1101   1.409       .  A
C1101      C1102   1.398       .  A
C1101      F1104   1.358       .  S
C1102      F1106   1.358       .  S
C1109      C1110   1.405       .  A
C1109      C1114   1.391       .  A
C1109      F1127   1.359       .  S
C1110      C1115   1.466       .  S
C1110      C1111   1.402       .  A
C1111      C1112   1.392       .  A
C1111      F1116   1.358       .  S
C1112      C1113   1.404       .  A
C1112      F1128   1.358       .  S
C1113      C1114   1.403       .  A
C1114      F1117   1.359       .  S
C1115      C1118   1.406       .  A
C1115      C1122   1.399       .  A
C1118      C1119   1.394       .  A
C1118      F1123   1.358       .  S
C1119      C1120   1.405       .  A
C1119      F1125   1.358       .  S
C1120      C1121   1.410       .  A
C1121      C1122   1.389       .  A
C1121      F1124   1.358       .  S
C1122      F1126   1.358       .  S
C1129      C1130   1.412       .  A
C1129      C1134   1.403       .  A
C1129      F1147   1.358       .  S
C1130      C1135   1.502       .  S
C1130      C1131   1.410       .  A
C1131      C1132   1.405       .  A
C1131      F1136   1.358       .  S
C1132      C1133   1.407       .  A
C1132      F1148   1.358       .  S
C1133      C1134   1.405       .  A
C1134      F1137   1.358       .  S
C1135      C1138   1.409       .  A
C1135      C1142   1.414       .  A
C1138      C1139   1.402       .  A
C1138      F1143   1.358       .  S
C1139      C1140   1.406       .  A
C1139      F1145   1.357       .  S
C1140      C1141   1.405       .  A
C1141      C1142   1.406       .  A
C1141      F1144   1.358       .  S
C1142      F1146   1.358       .  S
C1149      C1150   1.411       .  A
C1149      C1154   1.401   1_545  A
C1149      F1167   1.358       .  S
C1150      C1155   1.486       .  S
C1150      C1151   1.408   1_545  A
C1151      C1152   1.393       .  A
C1151      F1156   1.358       .  S
C1152      C1153   1.401       .  A
C1152      F1168   1.358       .  S
C1153      C1154   1.402       .  A
C1154      F1157   1.358       .  S
C1155      C1158   1.406       .  A
C1155      C1162   1.408       .  A
C1158      C1159   1.398       .  A
C1158      F1163   1.358       .  S
C1159      C1160   1.410       .  A
C1159      F1165   1.358       .  S
C1160      C1161   1.408       .  A
C1161      C1162   1.397       .  A
C1161      F1164   1.358       .  S
C1162      F1166   1.358       .  S
C1169      C1170   1.407       .  A
C1169      C1174   1.401       .  A
C1169      F1187   1.358       .  S
C1170      C1175   1.473       .  S
C1170      C1171   1.399       .  A
C1171      C1172   1.394       .  A
C1171      F1176   1.358       .  S
C1172      C1173   1.407       .  A
C1172      F1188   1.358       .  S
C1173      C1174   1.404       .  A
C1174      F1177   1.358       .  S
C1175      C1178   1.408       .  A
C1175      C1182   1.397       .  A
C1178      C1179   1.401       .  A
C1178      F1183   1.358       .  S
C1179      C1180   1.405       .  A
C1179      F1185   1.358       .  S
C1180      C1181   1.413       .  A
C1181      C1182   1.395       .  A
C1181      F1184   1.358       .  S
C1182      F1186   1.358       .  S
C1189      C1190   1.404       .  A
C1189      C1194   1.399       .  A
C1189      F1207   1.359       .  S
C1190      C1195   1.484       .  S
C1190      C1191   1.404       .  A
C1191      C1192   1.407       .  A
C1191      F1196   1.357       .  S
C1192      C1193   1.413       .  A
C1192      F1208   1.357       .  S
C1193      C1194   1.411       .  A
C1194      F1197   1.358       .  S
C1195      C1198   1.405       .  A
C1195      C1202   1.407       .  A
C1198      C1199   1.400       .  A
C1198      F1203   1.358       .  S
C1199      C1200   1.405       .  A
C1199      F1205   1.358       .  S
C1200      C1201   1.405       .  A
C1201      C1202   1.404       .  A
C1201      F1204   1.358       .  S
C1202      F1206   1.357       .  S
C1209      C1210   1.407       .  A
C1209      C1214   1.405       .  A
C1209      F1227   1.357       .  S
C1210      C1215   1.496       .  S
C1210      C1211   1.409       .  A
C1211      C1212   1.406       .  A
C1211      F1216   1.358       .  S
C1212      C1213   1.407       .  A
C1212      F1228   1.358       .  S
C1213      C1214   1.408       .  A
C1214      F1217   1.358       .  S
C1215      C1218   1.409       .  A
C1215      C1222   1.404       .  A
C1218      C1219   1.407       .  A
C1218      F1223   1.358       .  S
C1219      C1220   1.412       .  A
C1219      F1225   1.358       .  S
C1220      C1221   1.414       .  A
C1221      C1222   1.404       .  A
C1221      F1224   1.358       .  S
C1222      F1226   1.358       .  S
C1229      C1230   1.406       .  A
C1229      C1234   1.405       .  A
C1229      F1247   1.358       .  S
C1230      C1235   1.494       .  S
C1230      C1231   1.406       .  A
C1231      C1232   1.403       .  A
C1231      F1236   1.358       .  S
C1232      C1233   1.412       .  A
C1232      F1248   1.357       .  S
C1233      C1234   1.415       .  A
C1234      F1237   1.358       .  S
C1235      C1238   1.406       .  A
C1235      C1242   1.409       .  A
C1238      C1239   1.400       .  A
C1238      F1243   1.358       .  S
C1239      C1240   1.409       .  A
C1239      F1245   1.358       .  S
C1240      C1241   1.408       .  A
C1241      C1242   1.408       .  A
C1241      F1244   1.357       .  S
C1242      F1246   1.358       .  S
C1249      C1250   1.405       .  A
C1249      C1254   1.398   1_565  A
C1249      F1267   1.358       .  S
C1250      C1255   1.482       .  S
C1250      C1251   1.406       .  A
C1251      C1252   1.401   1_565  A
C1251      F1256   1.358       .  S
C1252      C1253   1.407       .  A
C1252      F1268   1.358       .  S
C1253      C1254   1.405       .  A
C1254      F1257   1.357       .  S
C1255      C1258   1.404       .  A
C1255      C1262   1.403       .  A
C1258      C1259   1.400       .  A
C1258      F1263   1.358       .  S
C1259      C1260   1.413       .  A
C1259      F1265   1.358       .  S
C1260      C1261   1.413       .  A
C1261      C1262   1.399       .  A
C1261      F1264   1.358       .  S
C1262      F1266   1.358   1_565  S
C1269      C1270   1.407       .  A
C1269      C1274   1.407   1_565  A
C1269      F1287   1.358       .  S
C1270      C1275   1.485       .  S
C1270      C1271   1.401       .  A
C1271      C1272   1.397       .  A
C1271      F1276   1.358       .  S
C1272      C1273   1.414       .  A
C1272      F1288   1.358       .  S
C1273      C1274   1.412   1_565  A
C1274      F1277   1.358       .  S
C1275      C1278   1.404       .  A
C1275      C1282   1.407       .  A
C1278      C1279   1.397       .  A
C1278      F1283   1.358       .  S
C1279      C1280   1.406       .  A
C1279      F1285   1.358       .  S
C1280      C1281   1.408       .  A
C1281      C1282   1.408       .  A
C1281      F1284   1.358       .  S
C1282      F1286   1.357       .  S
C1289      C1290   1.406       .  A
C1289      C1294   1.393       .  A
C1289      F1307   1.358       .  S
C1290      C1295   1.464       .  S
C1290      C1291   1.399       .  A
C1291      C1292   1.388       .  A
C1291      F1296   1.358       .  S
C1292      C1293   1.409       .  A
C1292      F1308   1.359       .  S
C1293      C1294   1.404       .  A
C1294      F1297   1.358       .  S
C1295      C1298   1.403       .  A
C1295      C1302   1.401       .  A
C1298      C1299   1.384       .  A
C1298      F1303   1.359       .  S
C1299      C1300   1.409       .  A
C1299      F1305   1.359       .  S
C1300      C1301   1.411       .  A
C1301      C1302   1.395       .  A
C1301      F1304   1.357       .  S
C1302      F1306   1.358       .  S
C1309      C1310   1.408       .  A
C1309      C1314   1.401       .  A
C1309      F1327   1.358       .  S
C1310      C1315   1.497       .  S
C1310      C1311   1.407       .  A
C1311      C1312   1.405       .  A
C1311      F1316   1.358       .  S
C1312      C1313   1.414       .  A
C1312      F1328   1.358       .  S
C1313      C1314   1.412       .  A
C1314      F1317   1.358       .  S
C1315      C1318   1.410       .  A
C1315      C1322   1.411       .  A
C1318      C1319   1.404       .  A
C1318      F1323   1.358       .  S
C1319      C1320   1.405       .  A
C1319      F1325   1.358       .  S
C1320      C1321   1.404       .  A
C1321      C1322   1.402       .  A
C1321      F1324   1.358       .  S
C1322      F1326   1.358       .  S
C1329      C1330   1.409       .  A
C1329      C1334   1.409       .  A
C1329      F1347   1.357       .  S
C1330      C1335   1.502       .  S
C1330      C1331   1.408       .  A
C1331      C1332   1.404       .  A
C1331      F1336   1.358       .  S
C1332      C1333   1.413       .  A
C1332      F1348   1.358       .  S
C1333      C1334   1.413       .  A
C1334      F1337   1.358       .  S
C1335      C1338   1.409       .  A
C1335      C1342   1.411   1_554  A
C1338      C1339   1.406       .  A
C1338      F1343   1.358       .  S
C1339      C1340   1.408   1_554  A
C1339      F1345   1.358       .  S
C1340      C1341   1.408       .  A
C1341      C1342   1.408       .  A
C1341      F1344   1.358       .  S
C1342      F1346   1.358       .  S
C1349      C1350   1.402       .  A
C1349      C1354   1.400       .  A
C1349      F1367   1.358       .  S
C1350      C1355   1.477       .  S
C1350      C1351   1.403       .  A
C1351      C1352   1.400       .  A
C1351      F1356   1.358       .  S
C1352      C1353   1.410       .  A
C1352      F1368   1.358       .  S
C1353      C1354   1.410       .  A
C1354      F1357   1.358       .  S
C1355      C1358   1.400       .  A
C1355      C1362   1.402       .  A
C1358      C1359   1.399       .  A
C1358      F1363   1.358       .  S
C1359      C1360   1.414       .  A
C1359      F1365   1.358       .  S
C1360      C1361   1.413       .  A
C1361      C1362   1.401       .  A
C1361      F1364   1.358       .  S
C1362      F1366   1.358       .  S
C1369      C1370   1.404       .  A
C1369      C1374   1.394       .  A
C1369      F1387   1.359       .  S
C1370      C1375   1.480       .  S
C1370      C1371   1.404       .  A
C1371      C1372   1.402       .  A
C1371      F1376   1.358       .  S
C1372      C1373   1.411       .  A
C1372      F1388   1.357       .  S
C1373      C1374   1.410       .  A
C1374      F1377   1.358       .  S
C1375      C1378   1.407       .  A
C1375      C1382   1.407       .  A
C1378      C1379   1.397       .  A
C1378      F1383   1.358       .  S
C1379      C1380   1.403       .  A
C1379      F1385   1.358       .  S
C1380      C1381   1.402       .  A
C1381      C1382   1.398       .  A
C1381      F1384   1.358       .  S
C1382      F1386   1.358       .  S
C1389      C1390   1.406       .  A
C1389      C1394   1.397       .  A
C1389      F1407   1.358       .  S
C1390      C1395   1.485       .  S
C1390      C1391   1.407       .  A
C1391      C1392   1.405       .  A
C1391      F1396   1.357       .  S
C1392      C1393   1.407       .  A
C1392      F1408   1.358       .  S
C1393      C1394   1.404       .  A
C1394      F1397   1.358       .  S
C1395      C1398   1.408       .  A
C1395      C1402   1.401       .  A
C1398      C1399   1.406       .  A
C1398      F1403   1.358       .  S
C1399      C1400   1.410       .  A
C1399      F1405   1.358       .  S
C1400      C1401   1.414       .  A
C1401      C1402   1.397       .  A
C1401      F1404   1.358       .  S
C1402      F1406   1.358       .  S
C1409      C1410   1.410       .  A
C1409      C1414   1.408       .  A
C1409      F1427   1.358       .  S
C1410      C1415   1.503       .  S
C1410      C1411   1.407       .  A
C1411      C1412   1.406       .  A
C1411      F1416   1.358       .  S
C1412      C1413   1.416       .  A
C1412      F1428   1.358       .  S
C1413      C1414   1.413       .  A
C1414      F1417   1.357       .  S
C1415      C1418   1.412       .  A
C1415      C1422   1.409       .  A
C1418      C1419   1.410       .  A
C1418      F1423   1.357       .  S
C1419      C1420   1.408       .  A
C1419      F1425   1.358       .  S
C1420      C1421   1.407       .  A
C1421      C1422   1.402       .  A
C1421      F1424   1.358       .  S
C1422      F1426   1.357       .  S
C1429      C1430   1.413       .  A
C1429      C1434   1.406       .  A
C1429      F1447   1.358       .  S
C1430      C1435   1.497       .  S
C1430      C1431   1.407       .  A
C1431      C1432   1.398       .  A
C1431      F1436   1.358       .  S
C1432      C1433   1.407       .  A
C1432      F1448   1.358       .  S
C1433      C1434   1.406       .  A
C1434      F1437   1.358       .  S
C1435      C1438   1.410       .  A
C1435      C1442   1.410   1_554  A
C1438      C1439   1.405       .  A
C1438      F1443   1.357       .  S
C1439      C1440   1.406   1_554  A
C1439      F1445   1.358       .  S
C1440      C1441   1.405       .  A
C1441      C1442   1.400       .  A
C1441      F1444   1.358       .  S
C1442      F1446   1.358       .  S
C1449      C1450   1.406       .  A
C1449      C1454   1.396       .  A
C1449      F1467   1.358       .  S
C1450      C1455   1.481       .  S
C1450      C1451   1.407       .  A
C1451      C1452   1.397       .  A
C1451      F1456   1.358       .  S
C1452      C1453   1.406       .  A
C1452      F1468   1.358       .  S
C1453      C1454   1.408       .  A
C1454      F1457   1.359       .  S
C1455      C1458   1.406       .  A
C1455      C1462   1.405       .  A
C1458      C1459   1.397       .  A
C1458      F1463   1.358       .  S
C1459      C1460   1.409       .  A
C1459      F1465   1.358       .  S
C1460      C1461   1.410       .  A
C1461      C1462   1.396       .  A
C1461      F1464   1.358       .  S
C1462      F1466   1.358       .  S
C1469      C1470   1.402       .  A
C1469      C1474   1.396       .  A
C1469      F1487   1.358       .  S
C1470      C1475   1.474       .  S
C1470      C1471   1.404       .  A
C1471      C1472   1.400       .  A
C1471      F1476   1.358       .  S
C1472      C1473   1.407       .  A
C1472      F1488   1.358       .  S
C1473      C1474   1.407       .  A
C1474      F1477   1.358       .  S
C1475      C1478   1.399       .  A
C1475      C1482   1.405       .  A
C1478      C1479   1.397   1_554  A
C1478      F1483   1.358       .  S
C1479      C1480   1.414       .  A
C1479      F1485   1.358       .  S
C1480      C1481   1.408       .  A
C1481      C1482   1.398   1_556  A
C1481      F1484   1.358       .  S
C1482      F1486   1.358       .  S
C1489      C1490   1.404       .  A
C1489      C1494   1.391       .  A
C1489      F1507   1.358       .  S
C1490      C1495   1.461       .  S
C1490      C1491   1.399       .  A
C1491      C1492   1.393       .  A
C1491      F1496   1.358       .  S
C1492      C1493   1.407       .  A
C1492      F1508   1.358       .  S
C1493      C1494   1.401       .  A
C1494      F1497   1.358       .  S
C1495      C1498   1.403       .  A
C1495      C1502   1.397       .  A
C1498      C1499   1.395       .  A
C1498      F1503   1.359       .  S
C1499      C1500   1.407       .  A
C1499      F1505   1.358       .  S
C1500      C1501   1.411       .  A
C1501      C1502   1.391       .  A
C1501      F1504   1.358       .  S
C1502      F1506   1.358       .  S
C1509      C1510   1.403       .  A
C1509      C1514   1.395       .  A
C1509      F1527   1.358       .  S
C1510      C1515   1.475       .  S
C1510      C1511   1.405       .  A
C1511      C1512   1.403       .  A
C1511      F1516   1.357       .  S
C1512      C1513   1.406       .  A
C1512      F1528   1.358       .  S
C1513      C1514   1.406       .  A
C1514      F1517   1.359       .  S
C1515      C1518   1.405       .  A
C1515      C1522   1.402       .  A
C1518      C1519   1.397       .  A
C1518      F1523   1.358       .  S
C1519      C1520   1.405       .  A
C1519      F1525   1.358       .  S
C1520      C1521   1.409       .  A
C1521      C1522   1.402       .  A
C1521      F1524   1.358       .  S
C1522      F1526   1.358       .  S
C1529      C1530   1.411       .  A
C1529      C1534   1.404       .  A
C1529      F1547   1.357       .  S
C1530      C1535   1.506       .  S
C1530      C1531   1.414       .  A
C1531      C1532   1.408       .  A
C1531      F1536   1.358       .  S
C1532      C1533   1.407       .  A
C1532      F1548   1.358       .  S
C1533      C1534   1.405       .  A
C1534      F1537   1.358       .  S
C1535      C1538   1.411       .  A
C1535      C1542   1.414       .  A
C1538      C1539   1.401       .  A
C1538      F1543   1.358       .  S
C1539      C1540   1.405       .  A
C1539      F1545   1.358       .  S
C1540      C1541   1.408       .  A
C1541      C1542   1.410       .  A
C1541      F1544   1.358       .  S
C1542      F1546   1.358       .  S
C1549      C1550   1.414   1_565  A
C1549      C1554   1.404       .  A
C1549      F1567   1.358       .  S
C1550      C1555   1.501       .  S
C1550      C1551   1.409       .  A
C1551      C1552   1.403       .  A
C1551      F1556   1.357       .  S
C1552      C1553   1.405   1_545  A
C1552      F1568   1.358       .  S
C1553      C1554   1.404       .  A
C1554      F1557   1.358       .  S
C1555      C1558   1.413       .  A
C1555      C1562   1.405       .  A
C1558      C1559   1.413       .  A
C1558      F1563   1.357       .  S
C1559      C1560   1.411       .  A
C1559      F1565   1.357       .  S
C1560      C1561   1.415       .  A
C1561      C1562   1.395       .  A
C1561      F1564   1.358       .  S
C1562      F1566   1.359       .  S
C1569      C1570   1.408       .  A
C1569      C1574   1.403       .  A
C1569      F1587   1.358       .  S
C1570      C1575   1.495       .  S
C1570      C1571   1.406       .  A
C1571      C1572   1.404       .  A
C1571      F1576   1.358       .  S
C1572      C1573   1.414       .  A
C1572      F1588   1.358       .  S
C1573      C1574   1.412       .  A
C1574      F1577   1.358       .  S
C1575      C1578   1.406       .  A
C1575      C1582   1.409       .  A
C1578      C1579   1.400       .  A
C1578      F1583   1.358       .  S
C1579      C1580   1.410       .  A
C1579      F1585   1.358       .  S
C1580      C1581   1.411       .  A
C1581      C1582   1.406       .  A
C1581      F1584   1.358       .  S
C1582      F1586   1.358       .  S
C1589      C1590   1.407       .  A
C1589      C1594   1.402       .  A
C1589      F1607   1.358       .  S
C1590      C1595   1.477       .  S
C1590      C1591   1.402       .  A
C1591      C1592   1.395       .  A
C1591      F1596   1.358       .  S
C1592      C1593   1.406       .  A
C1592      F1608   1.358       .  S
C1593      C1594   1.406       .  A
C1594      F1597   1.358       .  S
C1595      C1598   1.407       .  A
C1595      C1602   1.398       .  A
C1598      C1599   1.401   1_545  A
C1598      F1603   1.358       .  S
C1599      C1600   1.409       .  A
C1599      F1605   1.358       .  S
C1600      C1601   1.416       .  A
C1601      C1602   1.396   1_565  A
C1601      F1604   1.358       .  S
C1602      F1606   1.358       .  S
C1609      C1610   1.404       .  A
C1609      C1614   1.396       .  A
C1609      F1627   1.359       .  S
C1610      C1615   1.482       .  S
C1610      C1611   1.407       .  A
C1611      C1612   1.406       .  A
C1611      F1616   1.357       .  S
C1612      C1613   1.407       .  A
C1612      F1628   1.358       .  S
C1613      C1614   1.407       .  A
C1614      F1617   1.358       .  S
C1615      C1618   1.406       .  A
C1615      C1622   1.405       .  A
C1618      C1619   1.400       .  A
C1618      F1623   1.358       .  S
C1619      C1620   1.405       .  A
C1619      F1625   1.358       .  S
C1620      C1621   1.406       .  A
C1621      C1622   1.400       .  A
C1621      F1624   1.358       .  S
C1622      F1626   1.357       .  S
C1629      C1630   1.410       .  A
C1629      C1634   1.404       .  A
C1629      F1647   1.358       .  S
C1630      C1635   1.503       .  S
C1630      C1631   1.412       .  A
C1631      C1632   1.407       .  A
C1631      F1636   1.357       .  S
C1632      C1633   1.406       .  A
C1632      F1648   1.358       .  S
C1633      C1634   1.407       .  A
C1634      F1637   1.358       .  S
C1635      C1638   1.410       .  A
C1635      C1642   1.408       .  A
C1638      C1639   1.404       .  A
C1638      F1643   1.358       .  S
C1639      C1640   1.411       .  A
C1639      F1645   1.358       .  S
C1640      C1641   1.415       .  A
C1641      C1642   1.407       .  A
C1641      F1644   1.358   1_545  S
C1642      F1646   1.358       .  S
C1649      C1650   1.407       .  A
C1649      C1654   1.406       .  A
C1649      F1667   1.358       .  S
C1650      C1655   1.494   1_545  S
C1650      C1651   1.405       .  A
C1651      C1652   1.403       .  A
C1651      F1656   1.358       .  S
C1652      C1653   1.414       .  A
C1652      F1668   1.358       .  S
C1653      C1654   1.414       .  A
C1654      F1657   1.358       .  S
C1655      C1658   1.409       .  A
C1655      C1662   1.405   1_565  A
C1658      C1659   1.410       .  A
C1658      F1663   1.357       .  S
C1659      C1660   1.409       .  A
C1659      F1665   1.357       .  S
C1660      C1661   1.411       .  A
C1661      C1662   1.399   1_565  A
C1661      F1664   1.359   1_565  S
C1662      F1666   1.359       .  S
C1669      C1670   1.404       .  A
C1669      C1674   1.397       .  A
C1669      F1687   1.359       .  S
C1670      C1675   1.476       .  S
C1670      C1671   1.404       .  A
C1671      C1672   1.396       .  A
C1671      F1676   1.357       .  S
C1672      C1673   1.406       .  A
C1672      F1688   1.359       .  S
C1673      C1674   1.411       .  A
C1674      F1677   1.357       .  S
C1675      C1678   1.403       .  A
C1675      C1682   1.404       .  A
C1678      C1679   1.397       .  A
C1678      F1683   1.358       .  S
C1679      C1680   1.412       .  A
C1679      F1685   1.358       .  S
C1680      C1681   1.408       .  A
C1681      C1682   1.395       .  A
C1681      F1684   1.358       .  S
C1682      F1686   1.358       .  S
C1689      C1690   1.409       .  A
C1689      C1694   1.404       .  A
C1689      F1707   1.358       .  S
C1690      C1695   1.485       .  S
C1690      C1691   1.401       .  A
C1691      C1692   1.400       .  A
C1691      F1696   1.358       .  S
C1692      C1693   1.413       .  A
C1692      F1708   1.358       .  S
C1693      C1694   1.407       .  A
C1694      F1697   1.358       .  S
C1695      C1698   1.403       .  A
C1695      C1702   1.407       .  A
C1698      C1699   1.396       .  A
C1698      F1703   1.358       .  S
C1699      C1700   1.409       .  A
C1699      F1705   1.358       .  S
C1700      C1701   1.409       .  A
C1701      C1702   1.407       .  A
C1701      F1704   1.358       .  S
C1702      F1706   1.357       .  S
C1709      C1710   1.397       .  A
C1709      C1714   1.395       .  A
C1709      F1727   1.358       .  S
C1710      C1715   1.460       .  S
C1710      C1711   1.403       .  A
C1711      C1712   1.390       .  A
C1711      F1716   1.359       .  S
C1712      C1713   1.404       .  A
C1712      F1728   1.358       .  S
C1713      C1714   1.411       .  A
C1714      F1717   1.358       .  S
C1715      C1718   1.399       .  A
C1715      C1722   1.403       .  A
C1718      C1719   1.391       .  A
C1718      F1723   1.358       .  S
C1719      C1720   1.407       .  A
C1719      F1725   1.358       .  S
C1720      C1721   1.405       .  A
C1721      C1722   1.393       .  A
C1721      F1724   1.358       .  S
C1722      F1726   1.358       .  S
C1729      C1730   1.407       .  A
C1729      C1734   1.402       .  A
C1729      F1747   1.358       .  S
C1730      C1735   1.483       .  S
C1730      C1731   1.404       .  A
C1731      C1732   1.400       .  A
C1731      F1736   1.358       .  S
C1732      C1733   1.407       .  A
C1732      F1748   1.358       .  S
C1733      C1734   1.406       .  A
C1734      F1737   1.358       .  S
C1735      C1738   1.406       .  A
C1735      C1742   1.399       .  A
C1738      C1739   1.403       .  A
C1738      F1743   1.358       .  S
C1739      C1740   1.410       .  A
C1739      F1745   1.358       .  S
C1740      C1741   1.417       .  A
C1741      C1742   1.400       .  A
C1741      F1744   1.357       .  S
C1742      F1746   1.358       .  S
C1749      C1750   1.407       .  A
C1749      C1754   1.399       .  A
C1749      F1767   1.358       .  S
C1750      C1755   1.491       .  S
C1750      C1751   1.411       .  A
C1751      C1752   1.402       .  A
C1751      F1756   1.358       .  S
C1752      C1753   1.404       .  A
C1752      F1768   1.358       .  S
C1753      C1754   1.404       .  A
C1754      F1757   1.358       .  S
C1755      C1758   1.412       .  A
C1755      C1762   1.407       .  A
C1758      C1759   1.400       .  A
C1758      F1763   1.358       .  S
C1759      C1760   1.400       .  A
C1759      F1765   1.358       .  S
C1760      C1761   1.406       .  A
C1761      C1762   1.400       .  A
C1761      F1764   1.358       .  S
C1762      F1766   1.358       .  S
C1769      C1770   1.410       .  A
C1769      C1774   1.406       .  A
C1769      F1787   1.358       .  S
C1770      C1775   1.495       .  S
C1770      C1771   1.407   1_455  A
C1771      C1772   1.402       .  A
C1771      F1776   1.358       .  S
C1772      C1773   1.407       .  A
C1772      F1788   1.358       .  S
C1773      C1774   1.406   1_655  A
C1774      F1777   1.358       .  S
C1775      C1778   1.404       .  A
C1775      C1782   1.408       .  A
C1778      C1779   1.404       .  A
C1778      F1783   1.358       .  S
C1779      C1780   1.415       .  A
C1779      F1785   1.357       .  S
C1780      C1781   1.411       .  A
C1781      C1782   1.404       .  A
C1781      F1784   1.358       .  S
C1782      F1786   1.358       .  S
C1789      C1790   1.402       .  A
C1789      C1794   1.394       .  A
C1789      F1807   1.358       .  S
C1790      C1795   1.472       .  S
C1790      C1791   1.405       .  A
C1791      C1792   1.395       .  A
C1791      F1796   1.358       .  S
C1792      C1793   1.406       .  A
C1792      F1808   1.358       .  S
C1793      C1794   1.409       .  A
C1794      F1797   1.358       .  S
C1795      C1798   1.403       .  A
C1795      C1802   1.403       .  A
C1798      C1799   1.395       .  A
C1798      F1803   1.358       .  S
C1799      C1800   1.409       .  A
C1799      F1805   1.358       .  S
C1800      C1801   1.410       .  A
C1801      C1802   1.394       .  A
C1801      F1804   1.358       .  S
C1802      F1806   1.358       .  S
C1809      C1810   1.405       .  A
C1809      C1814   1.402       .  A
C1809      F1827   1.357       .  S
C1810      C1815   1.477       .  S
C1810      C1811   1.405       .  A
C1811      C1812   1.396       .  A
C1811      F1816   1.358       .  S
C1812      C1813   1.402       .  A
C1812      F1828   1.358       .  S
C1813      C1814   1.405       .  A
C1814      F1817   1.358       .  S
C1815      C1818   1.399       .  A
C1815      C1822   1.406       .  A
C1818      C1819   1.397       .  A
C1818      F1823   1.358       .  S
C1819      C1820   1.413       .  A
C1819      F1825   1.358       .  S
C1820      C1821   1.408       .  A
C1821      C1822   1.402       .  A
C1821      F1824   1.358       .  S
C1822      F1826   1.358       .  S
C1829      C1830   1.402       .  A
C1829      C1834   1.397       .  A
C1829      F1847   1.358       .  S
C1830      C1835   1.476       .  S
C1830      C1831   1.406       .  A
C1831      C1832   1.401       .  A
C1831      F1836   1.358       .  S
C1832      C1833   1.405       .  A
C1832      F1848   1.358       .  S
C1833      C1834   1.406       .  A
C1834      F1837   1.358       .  S
C1835      C1838   1.399       .  A
C1835      C1842   1.406       .  A
C1838      C1839   1.398       .  A
C1838      F1843   1.358       .  S
C1839      C1840   1.414       .  A
C1839      F1845   1.358       .  S
C1840      C1841   1.408       .  A
C1841      C1842   1.400       .  A
C1841      F1844   1.358       .  S
C1842      F1846   1.358       .  S
C1849      C1850   1.410       .  A
C1849      C1854   1.410       .  A
C1849      F1867   1.357       .  S
C1850      C1855   1.503       .  S
C1850      C1851   1.410       .  A
C1851      C1852   1.402       .  A
C1851      F1856   1.358       .  S
C1852      C1853   1.410       .  A
C1852      F1868   1.358       .  S
C1853      C1854   1.411       .  A
C1854      F1857   1.357       .  S
C1855      C1858   1.414       .  A
C1855      C1862   1.408       .  A
C1858      C1859   1.410       .  A
C1858      F1863   1.357       .  S
C1859      C1860   1.406       .  A
C1859      F1865   1.357       .  S
C1860      C1861   1.407       .  A
C1861      C1862   1.401       .  A
C1861      F1864   1.358       .  S
C1862      F1866   1.358       .  S
C1869      C1870   1.414       .  A
C1869      C1874   1.403       .  A
C1869      F1887   1.357       .  S
C1870      C1875   1.502       .  S
C1870      C1871   1.411       .  A
C1871      C1872   1.404       .  A
C1871      F1876   1.358       .  S
C1872      C1873   1.407       .  A
C1872      F1888   1.358       .  S
C1873      C1874   1.402       .  A
C1874      F1877   1.358       .  S
C1875      C1878   1.412       .  A
C1875      C1882   1.413       .  A
C1878      C1879   1.404       .  A
C1878      F1883   1.358       .  S
C1879      C1880   1.404   1_455  A
C1879      F1885   1.358       .  S
C1880      C1881   1.403       .  A
C1881      C1882   1.403   1_655  A
C1881      F1884   1.358       .  S
C1882      F1886   1.358   1_455  S
C1889      C1890   1.404       .  A
C1889      C1894   1.400       .  A
C1889      F1907   1.358       .  S
C1890      C1895   1.476       .  S
C1890      C1891   1.403       .  A
C1891      C1892   1.394       .  A
C1891      F1896   1.358       .  S
C1892      C1893   1.408       .  A
C1892      F1908   1.358       .  S
C1893      C1894   1.410       .  A
C1894      F1897   1.358       .  S
C1895      C1898   1.402       .  A
C1895      C1902   1.403       .  A
C1898      C1899   1.396       .  A
C1898      F1903   1.358       .  S
C1899      C1900   1.414       .  A
C1899      F1905   1.358       .  S
C1900      C1901   1.412       .  A
C1901      C1902   1.399       .  A
C1901      F1904   1.358       .  S
C1902      F1906   1.358       .  S
C1909      C1910   1.406       .  A
C1909      C1914   1.401       .  A
C1909      F1927   1.358       .  S
C1910      C1915   1.481       .  S
C1910      C1911   1.403       .  A
C1911      C1912   1.400       .  A
C1911      F1916   1.357       .  S
C1912      C1913   1.407       .  A
C1912      F1928   1.358       .  S
C1913      C1914   1.406       .  A
C1914      F1917   1.358       .  S
C1915      C1918   1.402       .  A
C1915      C1922   1.403       .  A
C1918      C1919   1.397   1_455  A
C1918      F1923   1.358       .  S
C1919      C1920   1.412       .  A
C1919      F1925   1.358       .  S
C1920      C1921   1.414       .  A
C1921      C1922   1.405   1_655  A
C1921      F1924   1.357       .  S
C1922      F1926   1.357       .  S
C1929      C1930   1.405       .  A
C1929      C1934   1.390       .  A
C1929      F1947   1.359       .  S
C1930      C1935   1.458       .  S
C1930      C1931   1.398       .  A
C1931      C1932   1.391       .  A
C1931      F1936   1.358       .  S
C1932      C1933   1.406       .  A
C1932      F1948   1.357       .  S
C1933      C1934   1.402       .  A
C1934      F1937   1.359       .  S
C1935      C1938   1.405       .  A
C1935      C1942   1.400       .  A
C1938      C1939   1.390       .  A
C1938      F1943   1.358       .  S
C1939      C1940   1.397       .  A
C1939      F1945   1.358       .  S
C1940      C1941   1.404       .  A
C1941      C1942   1.391       .  A
C1941      F1944   1.358       .  S
C1942      F1946   1.358       .  S
C1949      C1950   1.401       .  A
C1949      C1954   1.404       .  A
C1949      F1967   1.357       .  S
C1950      C1955   1.479       .  S
C1950      C1951   1.403       .  A
C1951      C1952   1.398       .  A
C1951      F1956   1.359       .  S
C1952      C1953   1.411       .  A
C1952      F1968   1.358       .  S
C1953      C1954   1.416       .  A
C1954      F1957   1.357       .  S
C1955      C1958   1.403       .  A
C1955      C1962   1.407       .  A
C1958      C1959   1.398       .  A
C1958      F1963   1.358       .  S
C1959      C1960   1.406       .  A
C1959      F1965   1.358       .  S
C1960      C1961   1.405       .  A
C1961      C1962   1.403       .  A
C1961      F1964   1.358       .  S
C1962      F1966   1.358       .  S
