geometry optimzed in LAMMPS
_audit_creation_date              2020-11-30 
_audit_creation_method            'lammps2cif' 
_symmetry_space_group_name_H-M    'P1' 
_symmetry_Int_Tables_number       1 
_symmetry_cell_setting            triclinic 
loop_ 
_symmetry_equiv_pos_as_xyz 
  x,y,z 
_cell_length_a                    27.0786506 
_cell_length_b                    28.059187426466156 
_cell_length_c                    31.47627120866706 
_cell_angle_alpha                 88.16241135509196 
_cell_angle_beta                  85.16716176633479 
_cell_angle_gamma                 114.23031309771198 
loop_ 
_atom_site_label 
_atom_site_type_symbol 
_atom_site_fract_x 
_atom_site_fract_y 
_atom_site_fract_z 
_atom_site_charge 
O1          O  0.36001094  0.07747447  0.90314772    -0.81300
O2          O  0.21925111  0.18061231  0.97465116    -0.66000
O3          O  0.31365556  0.14123885  0.89953691    -1.12600
C4          C  0.45572517  0.24865785  0.97079534     1.05600
O5          O  0.28528136  0.25791255  0.98846201    -0.79200
O6          O  0.35515799  0.27855948  0.91876557    -0.66800
Ni7        Ni  0.29932089  0.07623227  0.87795875     1.34900
C8          C  0.38254787  0.26854479  0.88829470     0.84300
O9          O  0.20291853  0.11625802  0.90457854    -0.79800
O10         O  0.23686237  0.07588215  0.85591213    -0.90000
C11         C  0.23656485  0.22924157  0.98536511     0.83900
O12         O  0.25494184  0.02913307  0.92286639    -0.68300
O13         O  0.42931628  0.27632192  0.97134362    -0.87500
C14         C  0.24044558  0.03504290  0.96049711     0.84700
C15         C  0.19916391  0.08798615  0.87220451     1.06300
H16         H  0.32327290  0.16675736  0.99651627     0.38100
O17         O  0.32803773  0.18610007  0.96929899    -1.10200
O18         O  0.40098380  0.23411728  0.89298287    -0.66800
Ni19       Ni  0.37666177  0.17105772  0.92983178     1.26300
O20         O  0.24343244  0.08078935  0.97263770    -0.67100
O21         O  0.43626279  0.20125386  0.96174918    -0.79400
C22         C  0.40252975  0.10692090  0.88031567     0.84100
O23         O  0.42273386  0.15416228  0.88860466    -0.66500
Ni24       Ni  0.35423538  0.26018545  0.97814319     1.27400
Ni25       Ni  0.26368260  0.15172084  0.93879630     1.26100
H26         H  0.31851818  0.16430502  0.87459995     0.38600
O27         O  0.42681926  0.12854983  0.53541140    -0.81300
O28         O  0.29956632  0.25144889  0.47609700    -0.66000
O29         O  0.35094318  0.16685439  0.54542766    -1.12600
C30         C  0.23974170  0.02741911  0.47789268     1.05600
O31         O  0.21464657  0.18720810  0.47798047    -0.79200
O32         O  0.20936768  0.12252881  0.54420471    -0.66800
Ni33       Ni  0.42051185  0.18456292  0.56323645     1.34900
C34         C  0.22194422  0.09420972  0.56938911     0.84300
O35         O  0.36865168  0.27124424  0.54450054    -0.79800
O36         O  0.41471843  0.24196802  0.58874199    -0.90000
C37         C  0.24713761  0.23469396  0.47108911     0.83900
O38         O  0.46675643  0.22899636  0.51742255    -0.68300
O39         O  0.20785385  0.04929717  0.48662528    -0.87500
C40         C  0.45741021  0.24060141  0.48104495     0.84700
C41         C  0.39688417  0.27514234  0.57638437     1.06300
H42         H  0.31318050  0.15436053  0.45129568     0.38100
O43         O  0.29734675  0.14980246  0.48062504    -1.10200
O44         O  0.25842849  0.07838964  0.55760594    -0.66800
Ni45       Ni  0.32096280  0.10648905  0.51411231     1.26300
O46         O  0.40780091  0.23429360  0.47260356    -0.67100
O47         O  0.29018955  0.04930723  0.48110803    -0.79400
C48         C  0.39670326  0.08439841  0.55340201     0.84100
O49         O  0.34697153  0.06545890  0.54774526    -0.66500
Ni50       Ni  0.21836512  0.12140032  0.48349662     1.27400
Ni51       Ni  0.33384114  0.21238931  0.50995790     1.26100
H52         H  0.32785773  0.16111788  0.57187860     0.38600
C53         C  0.98344941  0.47547385  0.76395824     0.45000
H54         H  0.97339200  0.47114986  0.79926344    -0.04000
C55         C  0.00736130  0.48529650  0.68214474     0.45100
H56         H  0.01800466  0.48892895  0.64699514    -0.04000
C57         C  0.46050077  0.01243907  0.74104118    -0.17700
C58         C  0.04324386  0.00679281  0.75201352    -0.17500
C59         C  0.45781339  0.41779844  0.74509903    -0.17800
C60         C  0.47304096  0.01726964  0.69750718    -0.17800
C61         C  0.05706111  0.01218125  0.70850624    -0.17400
C62         C  0.46930336  0.42346752  0.70149510    -0.17700
O63         O  0.25153851  0.31781842  0.45259374    -0.81300
O64         O  0.11620470  0.43944918  0.38790004    -0.66000
O65         O  0.16778436  0.35384407  0.45094630    -1.12600
C66         C  0.06985547  0.23300620  0.35053147     1.05600
O67         O  0.03651803  0.37534995  0.39914936    -0.79200
O68         O  0.99936103  0.27403375  0.41195043    -0.66800
Ni69       Ni  0.24636431  0.38318975  0.45096319     1.34900
C70         C  0.00879347  0.26256890  0.44835770     0.84300
O71         O  0.17325645  0.45442208  0.45385413    -0.79800
O72         O  0.25550174  0.45465090  0.45138579    -0.90000
C73         C  0.06574743  0.42145395  0.38464892     0.83900
O74         O  0.25848943  0.38722685  0.39058421    -0.68300
O75         O  0.05374572  0.26791320  0.33921283    -0.87500
C76         C  0.24408405  0.41303461  0.36444267     0.84700
C77         C  0.22316527  0.47622876  0.45905371     1.06300
H78         H  0.13842366  0.34689052  0.35929606     0.38100
O79         O  0.11511030  0.33965668  0.38582071    -1.10200
O80         O  0.05853104  0.26919581  0.45664701    -0.66800
Ni81       Ni  0.13259208  0.29277366  0.41918213     1.26300
O82         O  0.20696204  0.42844543  0.37561283    -0.67100
O83         O  0.09801285  0.23522901  0.38239700    -0.79400
C84         C  0.21966322  0.26994625  0.45730533     0.84100
O85         O  0.16742562  0.25288796  0.45143671    -0.66500
Ni86       Ni  0.04574998  0.32242416  0.36805347     1.27400
Ni87       Ni  0.14394574  0.39828871  0.41908247     1.26100
H88         H  0.15072431  0.34740077  0.48003010     0.38600
O89         O  0.18357031  0.26289708  0.95138276    -0.81300
O90         O  0.06080736  0.35768565  0.07277580    -0.66000
O91         O  0.13915860  0.33303352  0.97445893    -1.12600
C92         C  0.28594849  0.42131881  0.05842040     1.05600
O93         O  0.12114470  0.43574761  0.05733986    -0.79200
O94         O  0.22301401  0.48895644  0.02951128    -0.66800
Ni95       Ni  0.11425220  0.26181704  0.95689068     1.34900
C96         C  0.22454268  0.48542849  0.98986145     0.84300
O97         O  0.03045155  0.31313100  0.99953703    -0.79800
O98         O  0.04216589  0.25272394  0.95972029    -0.90000
C99         C  0.08090186  0.40508601  0.08148965     0.83900
O100        O  0.09803404  0.22406849  0.01254626    -0.68300
O101        O  0.25113098  0.43005792  0.08294337    -0.87500
C102        C  0.08247108  0.23477478  0.04881497     0.84700
C103        C  0.01329954  0.27348543  0.97731898     1.06300
H104        H  0.16827029  0.34352901  0.06620369     0.38100
O105        O  0.16718850  0.36885888  0.04524209    -1.10200
O106        O  0.21501071  0.44036584  0.97380064    -0.66800
Ni107      Ni  0.21081923  0.36929610  0.99479574     1.26300
O108        O  0.07992190  0.27796219  0.05486015    -0.67100
O109        O  0.27838787  0.40351516  0.02111312    -0.79400
C110        C  0.20567022  0.26271135  0.98467540     0.84100
O111        O  0.21157720  0.29934151  0.01082641    -0.66500
Ni112      Ni  0.18559299  0.43293028  0.07177872     1.27400
Ni113      Ni  0.09788192  0.34266806  0.02321856     1.26100
H114        H  0.13706497  0.35441148  0.95052006     0.38600
C115        C  0.44942895  0.02437393  0.25566166     0.45000
H116        H  0.43651363  0.02394955  0.29018555    -0.04000
C117        C  0.48037474  0.02424052  0.17573316     0.45100
H118        H  0.49360003  0.02364042  0.14139792    -0.04000
C119        C  0.49118840  0.50336827  0.24816329    -0.17700
C120        C  0.40534333  0.49862111  0.22557846    -0.17500
C121        C  0.48333657  0.07926228  0.23422604    -0.17800
C122        C  0.50755606  0.50018168  0.20658404    -0.17800
C123        C  0.42374385  0.49738716  0.18381806    -0.17400
C124        C  0.49924351  0.07942714  0.19150993    -0.17700
C125        C  0.02270949  0.19577054  0.11640622    -0.26800
C126        C  0.06434204  0.19586213  0.08626588    -0.14800
C127        C  0.08780431  0.16017574  0.09368159     0.35800
C128        C  0.06803224  0.12443292  0.12958911    -0.26200
C129        C  0.02501179  0.12291051  0.15863842    -0.15500
C130        C  0.50605991  0.16310610  0.15464261     0.36900
N131        N  0.46176505  0.16233884  0.18368015    -0.89700
H132        H  0.50783722  0.22651195  0.11354201     0.18000
H133        H  0.08552606  0.09650887  0.13409786     0.18000
N134        N  0.13241072  0.15987431  0.06605756    -0.88700
H135        H  0.45085121  0.19267949  0.17494307     0.35400
H136        H  0.42794448  0.12732671  0.18082326     0.40500
H137        H  0.16425530  0.19723600  0.06421986     0.40100
H138        H  0.12000917  0.15089579  0.03567847     0.35000
C139        C  0.33616290  0.40040388  0.11015496    -0.26800
C140        C  0.33713117  0.43481543  0.07649154    -0.14800
C141        C  0.37063159  0.48856159  0.07647480     0.35800
C142        C  0.39184941  0.00920725  0.11554539    -0.26200
C143        C  0.39159513  0.47400233  0.14833946    -0.15500
C144        C  0.36269403  0.41962040  0.14633548     0.36900
N145        N  0.35900185  0.38378602  0.18099489    -0.89700
H146        H  0.30955815  0.35905845  0.11060021     0.18000
H147        H  0.41592373  0.05094417  0.11651240     0.18000
N148        N  0.37060583  0.02512409  0.04321885    -0.88700
H149        H  0.37379545  0.35725589  0.16908655     0.35400
H150        H  0.31778777  0.36260739  0.19186143     0.40500
H151        H  0.38927100  0.51501557  0.01433572     0.40100
H152        H  0.39562386  0.06373881  0.04881991     0.35000
C153        C  0.07936296  0.49473728  0.16782429    -0.26800
C154        C  0.53791068  0.47040328  0.19097550    -0.14800
C155        C  0.50960976  0.41647302  0.18521129     0.35800
C156        C  0.02046179  0.39104163  0.14955675    -0.26200
C157        C  0.06579799  0.42388747  0.12162124    -0.15500
C158        C  0.09764838  0.47530060  0.13290039     0.36900
N159        N  0.14760055  0.50911489  0.10820931    -0.89700
H160        H  0.10396363  0.03451629  0.17153555     0.18000
H161        H  0.99754060  0.35064906  0.14285446     0.18000
N162        N  0.46226394  0.38280884  0.21290711    -0.88700
H163        H  0.17997839  0.01724271  0.12517790     0.35400
H164        H  0.14377201  0.54290746  0.09726784     0.40500
H165        H  0.45545702  0.40228689  0.23880093     0.40100
H166        H  0.47055416  0.35248076  0.22593530     0.35000
C167        C  0.27724137  0.47143181  0.29593684    -0.26800
C168        C  0.27391505  0.42722802  0.32069053    -0.14800
C169        C  0.30392295  0.39936710  0.30486006     0.35800
C170        C  0.34244991  0.42036548  0.26925041    -0.26200
C171        C  0.35024383  0.46745138  0.24741384    -0.15500
C172        C  0.31473225  0.49124578  0.25906239     0.36900
N173        N  0.31698337  0.53608391  0.23449301    -0.89700
H174        H  0.25291730  0.49222415  0.30638735     0.18000
H175        H  0.36964793  0.40186126  0.26101355     0.18000
N176        N  0.29708768  0.35061956  0.32582130    -0.88700
H177        H  0.30915843  0.52527452  0.20344132     0.35400
H178        H  0.35641364  0.56547618  0.23251920     0.40500
H179        H  0.33466870  0.35471354  0.33523877     0.40100
H180        H  0.28580486  0.32209981  0.30361453     0.35000
C181        C  0.49629207  0.16378059  0.32620976    -0.26800
C182        C  0.04970093  0.18720400  0.32505227    -0.14800
C183        C  0.08427021  0.17446277  0.29616640     0.35800
C184        C  0.06160285  0.14113595  0.26362552    -0.26200
C185        C  0.50746719  0.12245777  0.26205601    -0.15500
C186        C  0.47353976  0.13179316  0.29385695     0.36900
N187        N  0.41570365  0.10926482  0.29316311    -0.89700
H188        H  0.46961470  0.17219471  0.34952705     0.18000
H189        H  0.08748880  0.12985437  0.24193305     0.18000
N190        N  0.14175608  0.19551472  0.29976317    -0.88700
H191        H  0.39777395  0.08676132  0.32196009     0.35400
H192        H  0.40300000  0.13972910  0.29145434     0.40500
H193        H  0.15746753  0.23613211  0.29342608     0.40100
H194        H  0.16122221  0.18154911  0.27643443     0.35000
C195        C  0.47403343  0.45686109  0.31921394    -0.26800
C196        C  0.00518181  0.48174086  0.28666927    -0.14800
C197        C  0.06155959  0.50124478  0.28952917     0.35800
C198        C  0.08033221  0.48460951  0.32434537    -0.26200
C199        C  0.04373818  0.44823602  0.35611009    -0.15500
C200        C  0.98695483  0.43252823  0.35507859     0.36900
N201        N  0.94697997  0.39793369  0.38770341    -0.89700
H202        H  0.43087347  0.44498047  0.31765533     0.18000
H203        H  0.12391947  0.49796373  0.32497137     0.18000
N204        N  0.10260584  0.03367951  0.25616548    -0.88700
H205        H  0.46051789  0.41868562  0.41628024     0.35400
H206        H  0.94603951  0.36043204  0.38650501     0.40500
H207        H  0.12862351  0.01669664  0.24488101     0.40100
H208        H  0.12601073  0.06769847  0.27041545     0.35000
C209        C  0.37848243  0.03398235  0.62294304    -0.26800
C210        C  0.41610745  0.06382009  0.58861142    -0.14800
C211        C  0.47230992  0.08125472  0.59180426     0.35800
C212        C  0.48951504  0.06990077  0.62982676    -0.26200
C213        C  0.45214825  0.04076049  0.66470507    -0.15500
C214        C  0.39576400  0.02259592  0.66089447     0.36900
N215        N  0.34601875  0.47929050  0.69131412    -0.89700
H216        H  0.33517074  0.02093390  0.62099404     0.18000
H217        H  0.03136994  0.08128635  0.63259932     0.18000
N218        N  0.51170976  0.10979302  0.55624330    -0.88700
H219        H  0.34513717  0.49794220  0.71926748     0.35400
H220        H  0.35455143  0.44701424  0.69807869     0.40500
H221        H  0.50631297  0.08457125  0.53160038     0.40100
H222        H  0.05157508  0.12113018  0.56599167     0.35000
C223        C  0.13369011  0.00587027  0.66537439    -0.26800
C224        C  0.11214813  0.03847225  0.68474801    -0.14800
C225        C  0.13317932  0.09180211  0.66965896     0.35800
C226        C  0.17221583  0.11014357  0.63366869    -0.26200
C227        C  0.19050283  0.07637440  0.61222296    -0.15500
C228        C  0.17284114  0.02417523  0.62944132     0.36900
N229        N  0.19558190  0.48966610  0.60978334    -0.89700
H230        H  0.12149829  0.46692029  0.67790000     0.18000
H231        H  0.18665387  0.15051921  0.62107618     0.18000
N232        N  0.11411346  0.12706129  0.69001033    -0.88700
H233        H  0.17821128  0.45298737  0.62683939     0.35400
H234        H  0.23192142  0.00027124  0.61244658     0.40500
H235        H  0.07227675  0.11370475  0.68876923     0.40100
H236        H  0.13232394  0.16442968  0.67411339     0.35000
C237        C  0.37480175  0.31852744  0.63633507    -0.26800
C238        C  0.41177950  0.32004775  0.60204173    -0.14800
C239        C  0.46727234  0.35387157  0.60152268     0.35800
C240        C  0.48499837  0.38430790  0.63579014    -0.26200
C241        C  0.44845106  0.38274956  0.67070360    -0.15500
C242        C  0.39237648  0.35034175  0.67027895     0.36900
N243        N  0.35276537  0.34989185  0.70342730    -0.89700
H244        H  0.33241352  0.29113619  0.63755496     0.18000
H245        H  0.03385245  0.41126260  0.63315891     0.18000
N246        N  0.01076360  0.35420664  0.56727362    -0.88700
H247        H  0.33288121  0.31163886  0.71752998     0.35400
H248        H  0.32365239  0.35872137  0.68931271     0.40500
H249        H  0.49401575  0.36658533  0.53850148     0.40100
H250        H  0.01069843  0.31696222  0.56715256     0.35000
C251        C  0.46159089  0.09538691  0.76818338    -0.26800
C252        C  0.43475654  0.04083159  0.76646935    -0.14800
C253        C  0.39304235  0.01182587  0.79833319     0.35800
C254        C  0.38461795  0.03490260  0.83454018    -0.26200
C255        C  0.41582441  0.08786362  0.83973241    -0.15500
C256        C  0.45268913  0.11958708  0.80505934     0.36900
N257        N  0.48124891  0.17519648  0.80744685    -0.89700
H258        H  0.49254026  0.11820637  0.74260589     0.18000
H259        H  0.35363056  0.00989905  0.85929358     0.18000
N260        N  0.36020005  0.95765941  0.79510626    -0.88700
H261        H  0.50553694  0.19246435  0.77874676     0.35400
H262        H  0.50778427  0.18134453  0.83101566     0.40500
H263        H  0.31129393  0.44521916  0.80183043     0.40100
H264        H  0.35626037  0.43204903  0.82838321     0.35000
C265        C  0.09478443  0.99439087  0.80962152    -0.26800
C266        C  0.08074637  0.02866967  0.78535294    -0.14800
C267        C  0.09641378  0.08060496  0.79757093     0.35800
C268        C  0.13077842  0.09869705  0.83005091    -0.26200
C269        C  0.14914841  0.06559809  0.85097211    -0.15500
C270        C  0.12903520  0.01225213  0.84206413     0.36900
N271        N  0.14597193  0.97711286  0.86469679    -0.89700
H272        H  0.07214206  0.45208095  0.80643347     0.18000
H273        H  0.14573340  0.13953737  0.83699883     0.18000
N274        N  0.07752376  0.11542470  0.77774568    -0.88700
H275        H  0.11435337  0.43638167  0.86172457     0.35400
H276        H  0.13124991  0.97418699  0.89690253     0.40500
H277        H  0.11164823  0.14941413  0.76624099     0.40100
H278        H  0.05660925  0.12664018  0.80194233     0.35000
C279        C  0.44364912  0.30502073  0.82023358    -0.26800
C280        C  0.39612345  0.29882956  0.84635923    -0.14800
C281        C  0.36260173  0.32154619  0.83164234     0.35800
C282        C  0.38015037  0.35454107  0.79404889    -0.26200
C283        C  0.43148842  0.36749995  0.77188964    -0.15500
C284        C  0.46155838  0.33919234  0.78318492     0.36900
N285        N  0.02285089  0.35423679  0.75906672    -0.89700
H286        H  0.46844871  0.28526237  0.82962730     0.18000
H287        H  0.35353785  0.37023659  0.78211261     0.18000
N288        N  0.31086281  0.31121956  0.85465985    -0.88700
H289        H  0.04866015  0.39408350  0.75610063     0.31800
H290        H  0.01422120  0.34254163  0.72834078     0.40500
H291        H  0.28080998  0.29555821  0.83398330     0.40100
H292        H  0.31103468  0.34676820  0.86375881     0.35000
O293        O  0.35962452  0.57834745  0.90185916    -0.81300
O294        O  0.22032932  0.68075474  0.97415292    -0.66000
O295        O  0.31218499  0.64071465  0.89665782    -1.12600
C296        C  0.45735337  0.75024779  0.96399999     1.05600
O297        O  0.28675239  0.75947387  0.98421221    -0.79200
O298        O  0.35634809  0.78047134  0.91392047    -0.66800
Ni299      Ni  0.29761005  0.57456589  0.87735377     1.34900
C300        C  0.38361798  0.77061181  0.88326128     0.84300
O301        O  0.20166995  0.61513643  0.90433768    -0.79800
O302        O  0.23349546  0.57186241  0.85669883    -0.90000
C303        C  0.23768154  0.72979576  0.98384220     0.83900
O304        O  0.25551049  0.52872141  0.92333759    -0.68300
O305        O  0.43070351  0.77769532  0.96574117    -0.87500
C306        C  0.24170065  0.53553237  0.96080020     0.84700
C307        C  0.19683631  0.58568323  0.87259976     1.06300
H308        H  0.32638363  0.66888346  0.99258903     0.38100
O309        O  0.32964854  0.68753923  0.96531623    -1.10200
O310        O  0.39988027  0.73444265  0.88698212    -0.66800
Ni311      Ni  0.37684665  0.67201722  0.92472482     1.26300
O312        O  0.24481614  0.58160452  0.97215380    -0.67100
O313        O  0.43797719  0.70301041  0.95466504    -0.79400
C314        C  0.40072186  0.60623315  0.87702372     0.84100
O315        O  0.42123721  0.65419407  0.88275090    -0.66500
Ni316      Ni  0.35575731  0.76182529  0.97325759     1.27400
Ni317      Ni  0.26366911  0.65167459  0.93710632     1.26100
H318        H  0.31572370  0.66278206  0.87138902     0.38600
O319        O  0.42694208  0.62995377  0.53830596    -0.81300
O320        O  0.29948699  0.75246873  0.47718281    -0.66000
O321        O  0.35078767  0.66763534  0.54588875    -1.12600
C322        C  0.24491716  0.52888777  0.47292951     1.05600
O323        O  0.21601049  0.68700726  0.47536316    -0.79200
O324        O  0.20727041  0.61909469  0.53923864    -0.66800
Ni325      Ni  0.42026371  0.68651777  0.56480539     1.34900
C326        C  0.22012226  0.59184194  0.56523302     0.84300
O327        O  0.36795601  0.77272530  0.54555611    -0.79800
O328        O  0.41482072  0.74472068  0.58958746    -0.90000
C329        C  0.24719006  0.73501894  0.47168905     0.83900
O330        O  0.46689573  0.72977135  0.51829406    -0.68300
O331        O  0.21245141  0.55050370  0.47979427    -0.87500
C332        C  0.45778236  0.74117115  0.48170605     0.84700
C333        C  0.39718434  0.77791645  0.57702977     1.06300
H334        H  0.31736266  0.65703381  0.45065416     0.38100
O335        O  0.29982339  0.65141761  0.47951989    -1.10200
O336        O  0.25830854  0.57776596  0.55491230    -0.66800
Ni337      Ni  0.32266068  0.60763669  0.51327256     1.26300
O338        O  0.40846370  0.73586134  0.47334825    -0.67100
O339        O  0.29463078  0.55074661  0.47884306    -0.79400
C340        C  0.39599703  0.58568527  0.55568482     0.84100
O341        O  0.34715433  0.56634871  0.54775170    -0.66500
Ni342      Ni  0.22127503  0.62191934  0.47873201     1.27400
Ni343      Ni  0.33417710  0.71351629  0.51038103     1.26100
H344        H  0.32678005  0.66092219  0.57198051     0.38600
C345        C  0.98177466  0.97712447  0.76459242     0.45000
H346        H  0.97099846  0.97196910  0.79982424    -0.04000
C347        C  0.00765549  0.98871518  0.68285999     0.45100
H348        H  0.01904693  0.99328463  0.64773486    -0.04000
C349        C  0.45065065  0.50198637  0.74217359    -0.17700
C350        C  0.04447050  0.50658310  0.75032235    -0.17500
C351        C  0.46341502  0.92611007  0.74320720    -0.17800
C352        C  0.46327087  0.50680618  0.69879354    -0.17800
C353        C  0.05732261  0.51141756  0.70670942    -0.17400
C354        C  0.47502561  0.93203914  0.69957152    -0.17700
O355        O  0.24873081  0.81813810  0.45983917    -0.81300
O356        O  0.11423143  0.93903670  0.39198925    -0.66000
O357        O  0.16421730  0.85245401  0.45563401    -1.12600
C358        C  0.07229843  0.73401450  0.35182659     1.05600
O359        O  0.03449142  0.87452311  0.40005263    -0.79200
O360        O  0.99876432  0.77321102  0.41282537    -0.66800
Ni361      Ni  0.24240486  0.88274776  0.45752909     1.34900
C362        C  0.00750475  0.76097214  0.44930577     0.84300
O363        O  0.16759418  0.95229717  0.45998439    -0.79800
O364        O  0.25016563  0.95352635  0.45715446    -0.90000
C365        C  0.06430639  0.92103458  0.38678388     0.83900
O366        O  0.25640261  0.88698637  0.39722576    -0.68300
O367        O  0.05611389  0.76881172  0.34043250    -0.87500
C368        C  0.24301053  0.91362281  0.37104409     0.84700
C369        C  0.21747894  0.97460507  0.46494625     1.06300
H370        H  0.13870940  0.84827969  0.36290854     0.38100
O371        O  0.11443665  0.83989954  0.38897767    -1.10200
O372        O  0.05691994  0.76725598  0.45809877    -0.66800
Ni373      Ni  0.13183800  0.79263480  0.42198307     1.26300
O374        O  0.20568818  0.92895939  0.38191231    -0.67100
O375        O  0.09966631  0.73602730  0.38405931    -0.79400
C376        C  0.21845364  0.77000911  0.46073906     0.84100
O377        O  0.16667732  0.75241132  0.45353585    -0.66500
Ni378      Ni  0.04594171  0.82229001  0.36939118     1.27400
Ni379      Ni  0.14086138  0.89730116  0.42370449     1.26100
H380        H  0.14594920  0.84480437  0.48437023     0.38600
O381        O  0.18253010  0.76166917  0.95144106    -0.81300
O382        O  0.05751635  0.85691299  0.06981452    -0.66000
O383        O  0.13808795  0.83154786  0.97350039    -1.12600
C384        C  0.28299002  0.92179881  0.05947172     1.05600
O385        O  0.11846429  0.93433582  0.05391738    -0.79200
O386        O  0.22082269  0.98804339  0.02882200    -0.66800
Ni387      Ni  0.11293705  0.75978138  0.95715458     1.34900
C388        C  0.22283374  0.98459995  0.98920533     0.84300
O389        O  0.02899162  0.81306063  0.99592874    -0.79800
O390        O  0.04030354  0.74992435  0.95989250    -0.90000
C391        C  0.07830943  0.90429432  0.07833459     0.83900
O392        O  0.09826866  0.72370659  0.01331426    -0.68300
O393        O  0.24722263  0.92974146  0.08348775    -0.87500
C394        C  0.08123271  0.73444908  0.04897044     0.84700
C395        C  0.01174771  0.77264019  0.97458837     1.06300
H396        H  0.16508413  0.84226238  0.06573595     0.38100
O397        O  0.16447404  0.86757662  0.04452712    -1.10200
O398        O  0.21335264  0.93949014  0.97321406    -0.66800
Ni399      Ni  0.20945374  0.86852844  0.99469861     1.26300
O400        O  0.07635264  0.77687688  0.05360155    -0.67100
O401        O  0.27632462  0.90358692  0.02217379    -0.79400
C402        C  0.20553816  0.76219442  0.98436224     0.84100
O403        O  0.21116447  0.79874839  0.01063961    -0.66500
Ni404      Ni  0.18208716  0.93199543  0.07057106     1.27400
Ni405      Ni  0.09566397  0.84160183  0.02121885     1.26100
H406        H  0.13643554  0.85249653  0.94907486     0.38600
C407        C  0.45130428  0.52884164  0.25293302     0.45000
H408        H  0.43658777  0.52967534  0.28682897    -0.04000
C409        C  0.48523270  0.52590993  0.17426890     0.45100
H410        H  0.49937193  0.52358360  0.14052092    -0.04000
C411        C  0.48644326  0.99611928  0.24779021    -0.17700
C412        C  0.40174023  0.99796309  0.22889854    -0.17500
C413        C  0.48361977  0.58317129  0.22998916    -0.17800
C414        C  0.50115206  0.99433269  0.20560970    -0.17800
C415        C  0.41868454  0.99817284  0.18637634    -0.17400
C416        C  0.50056773  0.58182273  0.18776270    -0.17700
C417        C  0.02662737  0.69961168  0.11948747    -0.26800
C418        C  0.06461326  0.69666662  0.08728888    -0.14800
C419        C  0.08557861  0.65863502  0.09331258     0.35800
C420        C  0.06681794  0.62384462  0.12976597    -0.26200
C421        C  0.02642906  0.62468976  0.16036950    -0.15500
C422        C  0.50951827  0.66676912  0.15106109     0.36900
N423        N  0.46866717  0.66949397  0.18194302    -0.89700
H424        H  0.51308945  0.73149420  0.11091064     0.18000
H425        H  0.08237573  0.59426962  0.13309163     0.18000
N426        N  0.12599621  0.65421431  0.06335531    -0.88700
H427        H  0.46021741  0.70170299  0.17421914     0.35400
H428        H  0.43269113  0.63608768  0.18025886     0.40500
H429        H  0.15978531  0.69031323  0.05937057     0.40100
H430        H  0.11003606  0.64453240  0.03417002     0.35000
C431        C  0.33247609  0.90174129  0.11225001    -0.26800
C432        C  0.33379750  0.93605283  0.07840745    -0.14800
C433        C  0.36680099  0.98992055  0.07878545     0.35800
C434        C  0.39771079  0.50766331  0.11240784    -0.26200
C435        C  0.38559791  0.97538098  0.15138209    -0.15500
C436        C  0.35839727  0.92096835  0.14864977     0.36900
N437        N  0.35670914  0.88500250  0.18247720    -0.89700
H438        H  0.30675734  0.86022676  0.11226754     0.18000
H439        H  0.42211915  0.54936572  0.11310347     0.18000
N440        N  0.37172322  0.52402626  0.04203351    -0.88700
H441        H  0.37216831  0.85952257  0.16935730     0.35400
H442        H  0.31588146  0.86259327  0.19376802     0.40500
H443        H  0.38985598  0.01556823  0.01675764     0.40100
H444        H  0.39685072  0.56266537  0.04745460     0.35000
C445        C  0.08149549  0.99369992  0.16588930    -0.26800
C446        C  0.53082253  0.96485297  0.18749821    -0.14800
C447        C  0.50315671  0.91108294  0.18078881     0.35800
C448        C  0.02015662  0.89063386  0.14720170    -0.26200
C449        C  0.06527836  0.92309491  0.11903359    -0.15500
C450        C  0.09855233  0.97403028  0.13048476     0.36900
N451        N  0.14852455  0.00714237  0.10544647    -0.89700
H452        H  0.10103733  0.53569631  0.17335073     0.18000
H453        H  0.99618043  0.85055727  0.14025305     0.18000
N454        N  0.45698124  0.87604728  0.20886151    -0.88700
H455        H  0.17868039  0.52014891  0.12832929     0.35400
H456        H  0.14552177  0.04151179  0.09495829     0.40500
H457        H  0.44923285  0.89491853  0.23486283     0.40100
H458        H  0.46709514  0.84672943  0.22153218     0.35000
C459        C  0.27682972  0.97306205  0.30320616    -0.26800
C460        C  0.27369406  0.92866643  0.32753723    -0.14800
C461        C  0.30314002  0.90063436  0.31088539     0.35800
C462        C  0.33907724  0.92032356  0.27355464    -0.26200
C463        C  0.34680968  0.96756641  0.25191070    -0.15500
C464        C  0.31277110  0.99238780  0.26542893     0.36900
N465        N  0.31426500  0.03732748  0.24149972    -0.89700
H466        H  0.25318365  0.99419209  0.31446857     0.18000
H467        H  0.36498717  0.90091205  0.26381582     0.18000
N468        N  0.29844258  0.85303322  0.33259671    -0.88700
H469        H  0.30353078  0.02615176  0.21105401     0.35400
H470        H  0.35407519  0.06611539  0.23760278     0.40500
H471        H  0.33699415  0.85821724  0.34046634     0.40100
H472        H  0.28592378  0.82338873  0.31142605     0.35000
C473        C  0.49793418  0.66617088  0.32226971    -0.26800
C474        C  0.05198847  0.68807631  0.32656794    -0.14800
C475        C  0.08599483  0.67518780  0.29720162     0.35800
C476        C  0.06256698  0.64205691  0.26472922    -0.26200
C477        C  0.50920458  0.62661453  0.25726158    -0.15500
C478        C  0.47565285  0.63747765  0.28818483     0.36900
N479        N  0.41851176  0.61942355  0.28496959    -0.89700
H480        H  0.47136505  0.67539395  0.34508456     0.18000
H481        H  0.08798479  0.63095510  0.24244012     0.18000
N482        N  0.14360685  0.69591680  0.30017076    -0.88700
H483        H  0.39742577  0.59607505  0.31277605     0.35400
H484        H  0.40917357  0.65204996  0.28348804     0.40500
H485        H  0.15947739  0.73654314  0.29385213     0.40100
H486        H  0.16251881  0.68179923  0.27653997     0.35000
C487        C  0.47060890  0.94668571  0.31699054    -0.26800
C488        C  0.00723289  0.97998204  0.28563254    -0.14800
C489        C  0.06348902  0.99798956  0.28855780     0.35800
C490        C  0.08147589  0.98166209  0.32406208    -0.26200
C491        C  0.04417468  0.94829407  0.35708360    -0.15500
C492        C  0.98792750  0.93522627  0.35631844     0.36900
N493        N  0.94811736  0.90709556  0.39150002    -0.89700
H494        H  0.42741357  0.93443432  0.31586591     0.18000
H495        H  0.12483833  0.99327862  0.32465345     0.18000
N496        N  0.10005816  0.53802800  0.25741397    -0.88700
H497        H  0.45762342  0.91011396  0.41406850     0.35400
H498        H  0.94486751  0.86880485  0.39521512     0.40500
H499        H  0.12646077  0.52180152  0.24541132     0.40100
H500        H  0.12331668  0.57163811  0.27219365     0.35000
C501        C  0.37359975  0.53124790  0.62368625    -0.26800
C502        C  0.41321338  0.56400054  0.59152812    -0.14800
C503        C  0.46886407  0.58088471  0.59673368     0.35800
C504        C  0.48351347  0.56506881  0.63420918    -0.26200
C505        C  0.44418644  0.53246487  0.66655374    -0.15500
C506        C  0.38842487  0.51514420  0.66099682     0.36900
N507        N  0.35481305  0.99165032  0.69429089    -0.89700
H508        H  0.33071882  0.51849583  0.62014724     0.18000
H509        H  0.02811838  0.57194342  0.62866083     0.18000
N510        N  0.51034038  0.61315744  0.56367557    -0.88700
H511        H  0.35522725  0.01536419  0.71917840     0.35400
H512        H  0.36353738  0.96081327  0.70522060     0.40500
H513        H  0.50702818  0.59109390  0.53706620     0.40100
H514        H  0.04654037  0.60927094  0.56152868     0.35000
C515        C  0.13581318  0.50703320  0.66466116    -0.26800
C516        C  0.11166276  0.53879751  0.68187884    -0.14800
C517        C  0.12886188  0.59053068  0.66353931     0.35800
C518        C  0.16653956  0.60761898  0.62677225    -0.26200
C519        C  0.18799696  0.57463208  0.60789285    -0.15500
C520        C  0.17419657  0.52443310  0.62815054     0.36900
N521        N  0.19081327  0.98859639  0.60823377    -0.89700
H522        H  0.11659548  0.96471232  0.67629296     0.18000
H523        H  0.17813647  0.64664488  0.61197296     0.18000
N524        N  0.10820317  0.62582476  0.68185146    -0.88700
H525        H  0.17041721  0.95067050  0.62287618     0.35400
H526        H  0.23707669  0.50509351  0.61357700     0.40500
H527        H  0.06591248  0.60978237  0.68327659     0.40100
H528        H  0.12296818  0.66142374  0.66331447     0.35000
C529        C  0.37748753  0.82822328  0.63387400    -0.26800
C530        C  0.41422659  0.82463677  0.60156811    -0.14800
C531        C  0.47040963  0.85642412  0.60169963     0.35800
C532        C  0.48881655  0.88922570  0.63478024    -0.26200
C533        C  0.45257098  0.89142168  0.66841028    -0.15500
C534        C  0.39596421  0.86181892  0.66685711     0.36900
N535        N  0.35666132  0.86594457  0.69794745    -0.89700
H536        H  0.33441781  0.80325600  0.63455254     0.18000
H537        H  0.03505056  0.91149730  0.63614203     0.18000
N538        N  0.01491386  0.85224820  0.57129453    -0.88700
H539        H  0.33328411  0.82849783  0.71270977     0.35400
H540        H  0.33048581  0.87709953  0.68174799     0.40500
H541        H  0.49890381  0.86358435  0.53927209     0.40100
H542        H  0.01327474  0.81438453  0.57266389     0.35000
C543        C  0.45146799  0.58619271  0.76496214    -0.26800
C544        C  0.42531802  0.53130074  0.76669569    -0.14800
C545        C  0.38542944  0.50451833  0.80040147     0.35800
C546        C  0.37945308  0.53045452  0.83543134    -0.26200
C547        C  0.41085805  0.58411564  0.83727219    -0.15500
C548        C  0.44473519  0.61334107  0.80044080     0.36900
N549        N  0.47320689  0.66935332  0.79947371    -0.89700
H550        H  0.48104611  0.60719451  0.73803084     0.18000
H551        H  0.35025094  0.50720490  0.86189924     0.18000
N552        N  0.35183065  0.45007284  0.80025220    -0.88700
H553        H  0.49540193  0.68435041  0.76960885     0.35400
H554        H  0.50169323  0.67793312  0.82171451     0.40500
H555        H  0.31975903  0.95271102  0.79520719     0.40100
H556        H  0.36268024  0.93752367  0.82281422     0.35000
C557        C  0.09054925  0.49345815  0.81109257    -0.26800
C558        C  0.08211284  0.52874439  0.78337036    -0.14800
C559        C  0.10169470  0.58196309  0.79278449     0.35800
C560        C  0.13444038  0.59968109  0.82624134    -0.26200
C561        C  0.14712617  0.56502730  0.85100548    -0.15500
C562        C  0.12315114  0.51098092  0.84457037     0.36900
N563        N  0.13443876  0.47454701  0.87088503    -0.89700
H564        H  0.07984584  0.95371059  0.80300109     0.18000
H565        H  0.15275991  0.64119115  0.83105064     0.18000
N566        N  0.08838092  0.61845743  0.76914707    -0.88700
H567        H  0.12832051  0.93944495  0.85402598     0.35400
H568        H  0.11832933  0.47483417  0.90220170     0.40500
H569        H  0.12500859  0.64975077  0.75739975     0.40100
H570        H  0.06807974  0.63358849  0.79071748     0.35000
C571        C  0.45074787  0.81459317  0.81936852    -0.26800
C572        C  0.39977495  0.80339209  0.84235462    -0.14800
C573        C  0.36531662  0.82371021  0.82569660     0.35800
C574        C  0.38447643  0.85918828  0.78948856    -0.26200
C575        C  0.43766822  0.87549055  0.76969491    -0.15500
C576        C  0.46960220  0.84995295  0.78296960     0.36900
N577        N  0.02010207  0.85745951  0.75951434    -0.89700
H578        H  0.47681467  0.79713805  0.83047026     0.18000
H579        H  0.35761119  0.87445897  0.77727904     0.18000
N580        N  0.31078996  0.80821148  0.84528976    -0.88700
H581        H  0.04488284  0.89748544  0.75576035     0.31800
H582        H  0.01244565  0.84468875  0.72893628     0.40500
H583        H  0.28413455  0.79143626  0.82237465     0.40100
H584        H  0.30623014  0.84185894  0.85422900     0.35000
O585        O  0.85771067  0.07684295  0.90299322    -0.81300
O586        O  0.72197722  0.18371273  0.97506069    -0.66000
O587        O  0.81494249  0.14382413  0.89879479    -1.12600
C588        C  0.95741962  0.24925757  0.97045440     1.05600
O589        O  0.78849553  0.26297294  0.98340882    -0.79200
O590        O  0.86223070  0.28281013  0.91640235    -0.66800
Ni591      Ni  0.79872608  0.07862839  0.87698404     1.34900
C592        C  0.88945722  0.27181247  0.88641809     0.84300
O593        O  0.70406793  0.11933199  0.90496387    -0.79800
O594        O  0.73791758  0.08121848  0.85423545    -0.90000
C595        C  0.73934082  0.23314990  0.98344737     0.83900
O596        O  0.75202520  0.03186312  0.92121323    -0.68300
O597        O  0.93138275  0.27726602  0.97207213    -0.87500
C598        C  0.74066637  0.03796855  0.95951268     0.84700
C599        C  0.70013787  0.09237451  0.87174703     1.06300
H600        H  0.82572557  0.17064630  0.99550219     0.38100
O601        O  0.83049861  0.18944816  0.96802148    -1.10200
O602        O  0.90500680  0.23528328  0.89118806    -0.66800
Ni603      Ni  0.87812438  0.17244696  0.92901552     1.26300
O604        O  0.74596883  0.08410278  0.97235275    -0.67100
O605        O  0.93785114  0.20205284  0.96076827    -0.79400
C606        C  0.90113483  0.10518090  0.88067391     0.84100
O607        O  0.92269799  0.15254127  0.88872873    -0.66500
Ni608      Ni  0.85717498  0.26363296  0.97613014     1.27400
Ni609      Ni  0.76562395  0.15486497  0.93840184     1.26100
H610        H  0.82022138  0.16728458  0.87402804     0.38600
O611        O  0.92734334  0.12845393  0.53535388    -0.81300
O612        O  0.79975114  0.25178021  0.47734765    -0.66000
O613        O  0.85126850  0.16635355  0.54555396    -1.12600
C614        C  0.74298185  0.02803632  0.47375662     1.05600
O615        O  0.71537879  0.18703194  0.47744234    -0.79200
O616        O  0.70683450  0.11804417  0.54092696    -0.66800
Ni617      Ni  0.92109555  0.18437480  0.56339398     1.34900
C618        C  0.72029692  0.09083126  0.56652521     0.84300
O619        O  0.86929709  0.27125365  0.54563656    -0.79800
O620        O  0.91589460  0.24197410  0.58920728    -0.90000
C621        C  0.74735589  0.23482385  0.47211348     0.83900
O622        O  0.96741489  0.22887887  0.51751059    -0.68300
O623        O  0.71076549  0.04994129  0.48065074    -0.87500
C624        C  0.95795119  0.24081037  0.48126073     0.84700
C625        C  0.89864061  0.27560932  0.57694353     1.06300
H626        H  0.81575740  0.15585116  0.45101312     0.38100
O627        O  0.79882398  0.15040034  0.48005151    -1.10200
O628        O  0.75853591  0.07696687  0.55570544    -0.66800
Ni629      Ni  0.82208398  0.10645170  0.51320601     1.26300
O630        O  0.90835677  0.23489493  0.47313929    -0.67100
O631        O  0.79284564  0.04967941  0.47915680    -0.79400
C632        C  0.89714889  0.08410503  0.55296358     0.84100
O633        O  0.84763126  0.06505103  0.54674049    -0.66500
Ni634      Ni  0.72008748  0.12151582  0.48025968     1.27400
Ni635      Ni  0.83437141  0.21246405  0.51053075     1.26100
H636        H  0.82780221  0.15984269  0.57192728     0.38600
C637        C  0.47651933  0.47074078  0.76588969     0.45000
H638        H  0.46667446  0.46661204  0.80119915    -0.04000
C639        C  0.50040297  0.48054936  0.68397411     0.45100
H640        H  0.51075065  0.48499708  0.64873617    -0.04000
C641        C  0.95753043  0.00996977  0.74109735    -0.17700
C642        C  0.54533074  0.00731750  0.75170768    -0.17500
C643        C  0.96584370  0.42260708  0.74334172    -0.17800
C644        C  0.97078695  0.01551076  0.69760501    -0.17800
C645        C  0.55855893  0.01183510  0.70811182    -0.17400
C646        C  0.97703515  0.42809275  0.69971556    -0.17700
O647        O  0.75074163  0.31820604  0.45634068    -0.81300
O648        O  0.61707415  0.44062526  0.38981580    -0.66000
O649        O  0.66623043  0.35352709  0.45392062    -1.12600
C650        C  0.57208032  0.23400984  0.35214275     1.05600
O651        O  0.53682723  0.37710489  0.39777611    -0.79200
O652        O  0.49993582  0.27600197  0.41241026    -0.66800
Ni653      Ni  0.74467508  0.38315118  0.45498507     1.34900
C654        C  0.50860728  0.26288244  0.44859740     0.84300
O655        O  0.67008690  0.45315154  0.45782459    -0.79800
O656        O  0.75262174  0.45409266  0.45574397    -0.90000
C657        C  0.56728646  0.42341568  0.38443976     0.83900
O658        O  0.75810703  0.38796890  0.39457872    -0.68300
O659        O  0.55534311  0.26834026  0.34059897    -0.87500
C660        C  0.74388681  0.41401331  0.36851185     0.84700
C661        C  0.71980575  0.47518987  0.46324740     1.06300
H662        H  0.63984447  0.34850647  0.36137594     0.38100
O663        O  0.61576319  0.34062851  0.38753199    -1.10200
O664        O  0.55795781  0.26868064  0.45729553    -0.66800
Ni665      Ni  0.63288238  0.29338934  0.42110231     1.26300
O666        O  0.70711795  0.42972590  0.37984986    -0.67100
O667        O  0.60011058  0.23656899  0.38395822    -0.79400
C668        C  0.71941383  0.27018795  0.45961560     0.84100
O669        O  0.66733728  0.25309347  0.45329931    -0.66500
Ni670      Ni  0.54705637  0.32347936  0.36825018     1.27400
Ni671      Ni  0.64289200  0.39832600  0.42183449     1.26100
H672        H  0.64842643  0.34638433  0.48279424     0.38600
O673        O  0.68274880  0.26342502  0.95118867    -0.81300
O674        O  0.56127387  0.35983016  0.07232485    -0.66000
O675        O  0.63808743  0.33340484  0.97391897    -1.12600
C676        C  0.78572617  0.42375148  0.05688082     1.05600
O677        O  0.62136751  0.43741524  0.05465190    -0.79200
O678        O  0.72340030  0.49076745  0.02715226    -0.66800
Ni679      Ni  0.61316014  0.26171297  0.95748293     1.34900
C680        C  0.72343395  0.48679765  0.98758208     0.84300
O681        O  0.52907838  0.31315977  0.99980141    -0.79800
O682        O  0.54070649  0.25209465  0.96085111    -0.90000
C683        C  0.58212754  0.40761481  0.08001988     0.83900
O684        O  0.59873778  0.22517397  0.01357288    -0.68300
O685        O  0.75078802  0.43215992  0.08150205    -0.87500
C686        C  0.58359813  0.23644559  0.04976849     0.84700
C687        C  0.51179550  0.27320110  0.97786912     1.06300
H688        H  0.66889125  0.34569578  0.06502181     0.38100
O689        O  0.66718733  0.37062410  0.04397427    -1.10200
O690        O  0.71294002  0.44142136  0.97185902    -0.66800
Ni691      Ni  0.71032093  0.37108851  0.99333417     1.26300
O692        O  0.58029390  0.27945683  0.05518844    -0.67100
O693        O  0.77828883  0.40656676  0.01928686    -0.79400
C694        C  0.70679247  0.26503773  0.98370652     0.84100
O695        O  0.71279301  0.30199803  0.00952369    -0.66500
Ni696      Ni  0.68561878  0.43512667  0.06973987     1.27400
Ni697      Ni  0.59729711  0.34357974  0.02275967     1.26100
H698        H  0.63526773  0.35409852  0.94981254     0.38600
C699        C  0.94765635  0.02260945  0.25441942     0.45000
H700        H  0.93323826  0.02305199  0.28846292    -0.04000
C701        C  0.98124096  0.02141715  0.17526803     0.45100
H702        H  0.99556022  0.02027424  0.14129605    -0.04000
C703        C  0.98355641  0.49665816  0.24987847    -0.17700
C704        C  0.89990280  0.49729409  0.22715345    -0.17500
C705        C  0.98078027  0.07734364  0.23231516    -0.17800
C706        C  0.99964919  0.49380081  0.20819946    -0.17800
C707        C  0.91857710  0.49675017  0.18527827    -0.17400
C708        C  0.99757220  0.07682037  0.18995628    -0.17700
C709        C  0.52598083  0.19908786  0.11858364    -0.26800
C710        C  0.56671865  0.19842637  0.08788531    -0.14800
C711        C  0.59037345  0.16289396  0.09542538     0.35800
C712        C  0.57073570  0.12732881  0.13152883    -0.26200
C713        C  0.52794614  0.12606007  0.16077800    -0.15500
C714        C  0.00221458  0.15920867  0.15206805     0.36900
N715        N  0.95653933  0.15708115  0.18018303    -0.89700
H716        H  0.00443999  0.22306900  0.11120710     0.18000
H717        H  0.58792353  0.09921498  0.13585749     0.18000
N718        N  0.63478197  0.16238426  0.06762970    -0.88700
H719        H  0.94507221  0.18696352  0.17117498     0.35400
H720        H  0.92352995  0.12172491  0.17651869     0.40500
H721        H  0.66654813  0.19984372  0.06524957     0.40100
H722        H  0.62201058  0.15287628  0.03742588     0.35000
C723        C  0.83615752  0.40189103  0.10815437    -0.26800
C724        C  0.83680410  0.43713552  0.07523940    -0.14800
C725        C  0.86894939  0.49094811  0.07688772     0.35800
C726        C  0.89362939  0.00697008  0.11368440    -0.26200
C727        C  0.88710155  0.47445285  0.14926741    -0.15500
C728        C  0.86158145  0.42019035  0.14503875     0.36900
N729        N  0.86116323  0.38358903  0.17784225    -0.89700
H730        H  0.81124964  0.36033378  0.10715969     0.18000
H731        H  0.91808464  0.04853858  0.11515183     0.18000
N732        N  0.86975584  0.02516241  0.04288153    -0.88700
H733        H  0.87859881  0.35999749  0.16392967     0.35400
H734        H  0.82059633  0.35943357  0.18863234     0.40500
H735        H  0.89148858  0.51918356  0.01535058     0.40100
H736        H  0.89509457  0.06351072  0.04890765     0.35000
C737        C  0.58670049  0.49978870  0.16593414    -0.26800
C738        C  0.03030634  0.46445987  0.19202712    -0.14800
C739        C  0.00318007  0.41056670  0.18558546     0.35800
C740        C  0.52565406  0.39571928  0.14952026    -0.26200
C741        C  0.57009852  0.42757330  0.12054658    -0.15500
C742        C  0.60319908  0.47922888  0.13073421     0.36900
N743        N  0.65220809  0.51217381  0.10448814    -0.89700
H744        H  0.60239321  0.03544631  0.16927625     0.18000
H745        H  0.50171032  0.35530851  0.14344219     0.18000
N746        N  0.95701706  0.37545579  0.21367183    -0.88700
H747        H  0.67840458  0.02006849  0.12204622     0.35400
H748        H  0.64809685  0.54575206  0.09336524     0.40500
H749        H  0.94966834  0.39435091  0.23982234     0.40100
H750        H  0.96714345  0.34607042  0.22619456     0.35000
C751        C  0.77460616  0.47130455  0.29957822    -0.26800
C752        C  0.77277109  0.42780577  0.32445727    -0.14800
C753        C  0.80194555  0.39955983  0.30779525     0.35800
C754        C  0.83743596  0.41892767  0.27028181    -0.26200
C755        C  0.84469492  0.46597810  0.24862652    -0.15500
C756        C  0.81017618  0.49035351  0.26167101     0.36900
N757        N  0.81176847  0.53523578  0.23758163    -0.89700
H758        H  0.75079569  0.49232144  0.31073210     0.18000
H759        H  0.86386360  0.39995847  0.26079608     0.18000
N760        N  0.79760719  0.35225972  0.32979200    -0.88700
H761        H  0.80238589  0.52434029  0.20680262     0.35400
H762        H  0.85137346  0.56444326  0.23472096     0.40500
H763        H  0.83632370  0.35761274  0.33735524     0.40100
H764        H  0.78475334  0.32230596  0.30892024     0.35000
C765        C  0.99351351  0.16577502  0.32145935    -0.26800
C766        C  0.55280674  0.18812747  0.32717329    -0.14800
C767        C  0.58738288  0.17883251  0.29582887     0.35800
C768        C  0.56420993  0.14533845  0.26361760    -0.26200
C769        C  0.00536266  0.12105402  0.25965535    -0.15500
C770        C  0.97130970  0.13319815  0.28919530     0.36900
N771        N  0.91386407  0.11249477  0.28641458    -0.89700
H772        H  0.96677614  0.17637606  0.34294608     0.18000
H773        H  0.59021562  0.13636071  0.24018306     0.18000
N774        N  0.64542015  0.20385674  0.29650918    -0.88700
H775        H  0.89386640  0.09105760  0.31524510     0.35400
H776        H  0.90289916  0.14392666  0.28280964     0.40500
H777        H  0.65763111  0.24422139  0.29092155     0.40100
H778        H  0.66494248  0.19230108  0.27145820     0.35000
C779        C  0.96853307  0.45040559  0.32069929    -0.26800
C780        C  0.51168918  0.48802203  0.28557442    -0.14800
C781        C  0.56779510  0.50652965  0.28931273     0.35800
C782        C  0.58523387  0.48850980  0.32438500    -0.26200
C783        C  0.54739187  0.45209003  0.35564188    -0.15500
C784        C  0.49103836  0.43811770  0.35397000     0.36900
N785        N  0.45003966  0.40458153  0.38648741    -0.89700
H786        H  0.92518647  0.43776222  0.31967434     0.18000
H787        H  0.62858297  0.50079042  0.32567181     0.18000
N788        N  0.60251429  0.03520056  0.25487681    -0.88700
H789        H  0.95736053  0.41207673  0.41749894     0.35400
H790        H  0.44757328  0.36651369  0.38565587     0.40500
H791        H  0.62934009  0.01954531  0.24268136     0.40100
H792        H  0.62508858  0.06879767  0.26997423     0.35000
C793        C  0.87769568  0.03234903  0.62194321    -0.26800
C794        C  0.91597503  0.06318965  0.58830453    -0.14800
C795        C  0.97202637  0.08115835  0.59239844     0.35800
C796        C  0.98839138  0.06951781  0.63070452    -0.26200
C797        C  0.95034390  0.03935073  0.66484320    -0.15500
C798        C  0.89416315  0.02060744  0.66015502     0.36900
N799        N  0.85083445  0.48542893  0.69404743    -0.89700
H800        H  0.83448994  0.01882529  0.61927498     0.18000
H801        H  0.53253201  0.08109445  0.63088505     0.18000
N802        N  0.01212494  0.11052733  0.55747871    -0.88700
H803        H  0.85214963  0.50863032  0.71947099     0.35400
H804        H  0.85883995  0.45375605  0.70399601     0.40500
H805        H  0.00768735  0.08581153  0.53255319     0.40100
H806        H  0.55140775  0.12024526  0.56412305     0.35000
C807        C  0.63519876  0.00494721  0.66513999    -0.26800
C808        C  0.61329185  0.03776014  0.68375605    -0.14800
C809        C  0.63270561  0.09026139  0.66688471     0.35800
C810        C  0.66990823  0.10732127  0.62983967    -0.26200
C811        C  0.68889908  0.07343825  0.60942751    -0.15500
C812        C  0.67324885  0.02228132  0.62840398     0.36900
N813        N  0.68097365  0.48227807  0.60318752    -0.89700
H814        H  0.60782965  0.45706551  0.67221640     0.18000
H815        H  0.68291248  0.14699300  0.61596937     0.18000
N816        N  0.61420497  0.12614389  0.68680965    -0.88700
H817        H  0.65988160  0.44390956  0.61680368     0.35400
H818        H  0.73380534  0.00027358  0.61162582     0.40500
H819        H  0.57203378  0.11192229  0.68759963     0.40100
H820        H  0.63072153  0.16263220  0.66947516     0.35000
C821        C  0.87960433  0.32306335  0.63563567    -0.26800
C822        C  0.91576929  0.32161540  0.60191833    -0.14800
C823        C  0.97185829  0.35417317  0.60112414     0.35800
C824        C  0.99067970  0.38646976  0.63437241    -0.26200
C825        C  0.95491138  0.38704462  0.66908086    -0.15500
C826        C  0.89843575  0.35593390  0.66884727     0.36900
N827        N  0.85956700  0.35779778  0.70154779    -0.89700
H828        H  0.83675051  0.29697141  0.63715429     0.18000
H829        H  0.52786736  0.40984690  0.63487731     0.18000
N830        N  0.50665599  0.35712928  0.56682922    -0.88700
H831        H  0.83825941  0.31992212  0.71614514     0.35400
H832        H  0.83148857  0.36771790  0.68690928     0.40500
H833        H  0.99872791  0.36244510  0.53824016     0.40100
H834        H  0.50798300  0.32058886  0.56474205     0.35000
C835        C  0.95879616  0.09263201  0.76845921    -0.26800
C836        C  0.93162728  0.03814243  0.76667771    -0.14800
C837        C  0.89040703  0.00913944  0.79895870     0.35800
C838        C  0.88300341  0.03223670  0.83556737    -0.26200
C839        C  0.91426241  0.08532558  0.84043509    -0.15500
C840        C  0.95054780  0.11688827  0.80545436     0.36900
N841        N  0.97925396  0.17251487  0.80765307    -0.89700
H842        H  0.98964723  0.11537560  0.74279251     0.18000
H843        H  0.85257807  0.00739296  0.86073104     0.18000
N844        N  0.85710934  0.95504754  0.79566840    -0.88700
H845        H  0.00309752  0.18969407  0.77876667     0.35400
H846        H  0.00622442  0.17874816  0.83089921     0.40500
H847        H  0.81658628  0.45031825  0.79626040     0.40100
H848        H  0.85851288  0.43359460  0.82370599     0.35000
C849        C  0.59491838  0.99680696  0.81170119    -0.26800
C850        C  0.58296806  0.03056144  0.78486935    -0.14800
C851        C  0.59938173  0.08333826  0.79525843     0.35800
C852        C  0.63362344  0.10276996  0.82759846    -0.26200
C853        C  0.64966035  0.06989199  0.85125733    -0.15500
C854        C  0.62765136  0.01580162  0.84499325     0.36900
N855        N  0.64082212  0.98087983  0.87152530    -0.89700
H856        H  0.58418031  0.45143124  0.79642137     0.18000
H857        H  0.64975695  0.14419606  0.83274473     0.18000
N858        N  0.58063213  0.11750784  0.77427901    -0.88700
H859        H  0.63489685  0.43865409  0.84646058     0.35400
H860        H  0.62468539  0.98112761  0.90285380     0.40500
H861        H  0.61482715  0.15109198  0.76214205     0.40100
H862        H  0.56002123  0.12978366  0.79795762     0.35000
C863        C  0.95474175  0.31238276  0.82049781    -0.26800
C864        C  0.90497152  0.30301810  0.84474843    -0.14800
C865        C  0.87039581  0.32350529  0.82854305     0.35800
C866        C  0.88861790  0.35778878  0.79170946    -0.26200
C867        C  0.94080673  0.37253571  0.77053914    -0.15500
C868        C  0.97260735  0.34657981  0.78329944     0.36900
N869        N  0.51049640  0.34492609  0.75798403    -0.89700
H870        H  0.98066354  0.29454427  0.83120928     0.18000
H871        H  0.86174370  0.37315724  0.77974336     0.18000
N872        N  0.81658783  0.30929455  0.84924587    -0.88700
H873        H  0.53788164  0.38428700  0.75556842     0.31800
H874        H  0.50073627  0.33426014  0.72723545     0.40500
H875        H  0.78882708  0.29231142  0.82710754     0.40100
H876        H  0.81309421  0.34346044  0.85806190     0.35000
O877        O  0.85993950  0.57773286  0.90094617    -0.81300
O878        O  0.71998637  0.68294856  0.96956669    -0.66000
O879        O  0.81342699  0.64160890  0.89510831    -1.12600
C880        C  0.95619012  0.74936550  0.96570352     1.05600
O881        O  0.78641631  0.75985313  0.98405057    -0.79200
O882        O  0.85545881  0.78023809  0.91345001    -0.66800
Ni883      Ni  0.79920451  0.57581244  0.87527707     1.34900
C884        C  0.88324064  0.77052736  0.88308982     0.84300
O885        O  0.70253622  0.61607013  0.90029210    -0.79800
O886        O  0.73684454  0.57477808  0.85271655    -0.90000
C887        C  0.73763897  0.73151852  0.98059557     0.83900
O888        O  0.75470844  0.52993588  0.92079324    -0.68300
O889        O  0.93054193  0.77774061  0.96512580    -0.87500
C890        C  0.74055771  0.53673954  0.95824629     0.84700
C891        C  0.69883880  0.58678487  0.86848319     1.06300
H892        H  0.82394243  0.66873217  0.99147999     0.38100
O893        O  0.82847318  0.68779309  0.96419232    -1.10200
O894        O  0.90068070  0.73518259  0.88745201    -0.66800
Ni895      Ni  0.87661560  0.67211739  0.92482528     1.26300
O896        O  0.74368230  0.58282459  0.96951964    -0.67100
O897        O  0.93633932  0.70208212  0.95654427    -0.79400
C898        C  0.90242313  0.60628095  0.87763810     0.84100
O899        O  0.92214805  0.65416611  0.88398432    -0.66500
Ni900      Ni  0.85532707  0.76194549  0.97274143     1.27400
Ni901      Ni  0.76375345  0.65282786  0.93419548     1.26100
H902        H  0.81812699  0.66402637  0.86977088     0.38600
O903        O  0.92450035  0.62607086  0.53772529    -0.81300
O904        O  0.79915841  0.75142095  0.47880894    -0.66000
O905        O  0.84984870  0.66621394  0.54775571    -1.12600
C906        C  0.74115453  0.52774171  0.47668602     1.05600
O907        O  0.71464826  0.68672418  0.47876010    -0.79200
O908        O  0.70446227  0.61840771  0.54307107    -0.66800
Ni909      Ni  0.92005274  0.68354001  0.56474597     1.34900
C910        C  0.71696166  0.59046733  0.56865488     0.84300
O911        O  0.86966942  0.77171110  0.54645970    -0.79800
O912        O  0.91744370  0.74305171  0.58926666    -0.90000
C913        C  0.74680834  0.73440464  0.47349961     0.83900
O914        O  0.96598558  0.72601274  0.51794286    -0.68300
O915        O  0.70878969  0.54942793  0.48372934    -0.87500
C916        C  0.95653850  0.73893030  0.48203010     0.84700
C917        C  0.90047611  0.77689161  0.57688569     1.06300
H918        H  0.81416602  0.65493660  0.45327771     0.38100
O919        O  0.79726927  0.65001352  0.48228387    -1.10200
O920        O  0.75579173  0.57718426  0.55826617    -0.66800
Ni921      Ni  0.81977134  0.60613856  0.51583880     1.26300
O922        O  0.90712682  0.73394551  0.47429856    -0.67100
O923        O  0.79094628  0.54961210  0.48182936    -0.79400
C924        C  0.89334303  0.58179968  0.55503401     0.84100
O925        O  0.84377340  0.56423222  0.54961349    -0.66500
Ni926      Ni  0.71855190  0.62115826  0.48244115     1.27400
Ni927      Ni  0.83358491  0.71233451  0.51218038     1.26100
H928        H  0.82663853  0.66021035  0.57421408     0.38600
C929        C  0.48385967  0.97877079  0.76461883     0.45000
H930        H  0.47343108  0.97414670  0.79988209    -0.04000
C931        C  0.50862044  0.98918536  0.68281603     0.45100
H932        H  0.51962845  0.99343938  0.64766359    -0.04000
C933        C  0.95703409  0.50616671  0.74033363    -0.17700
C934        C  0.53786859  0.50086773  0.75201533    -0.17500
C935        C  0.96277014  0.92484579  0.74279252    -0.17800
C936        C  0.96920088  0.51069687  0.69672154    -0.17800
C937        C  0.55056603  0.50500474  0.70842498    -0.17400
C938        C  0.97534011  0.93131858  0.69927885    -0.17700
O939        O  0.75015444  0.81753041  0.45812594    -0.81300
O940        O  0.61633017  0.93773245  0.38820544    -0.66000
O941        O  0.66647688  0.85267685  0.45350213    -1.12600
C942        C  0.57361955  0.73256277  0.35118646     1.05600
O943        O  0.53685424  0.87327740  0.39865310    -0.79200
O944        O  0.50003244  0.77184447  0.41175352    -0.66800
Ni945      Ni  0.74486459  0.88258605  0.45440822     1.34900
C946        C  0.50880732  0.76159045  0.44879818     0.84300
O947        O  0.67118541  0.95299324  0.45556497    -0.79800
O948        O  0.75366500  0.95392595  0.45270511    -0.90000
C949        C  0.56617643  0.91919965  0.38373730     0.83900
O950        O  0.75734695  0.88429793  0.39414718    -0.68300
O951        O  0.55750224  0.76727260  0.33944966    -0.87500
C952        C  0.74344132  0.90984658  0.36739899     0.84700
C953        C  0.72112544  0.97524126  0.46043562     1.06300
H954        H  0.63971833  0.84561568  0.36108576     0.38100
O955        O  0.61582873  0.83830343  0.38728553    -1.10200
O956        O  0.55825633  0.76818807  0.45777073    -0.66800
Ni957      Ni  0.63286477  0.79175605  0.42123734     1.26300
O958        O  0.70723125  0.92658461  0.37818768    -0.67100
O959        O  0.60003589  0.73430707  0.38402470    -0.79400
C960        C  0.71901398  0.76951081  0.46086755     0.84100
O961        O  0.66715742  0.75207050  0.45394956    -0.66500
Ni962      Ni  0.54730635  0.82069874  0.36814661     1.27400
Ni963      Ni  0.64320509  0.89680929  0.42066941     1.26100
H964        H  0.64871508  0.84609502  0.48237824     0.38600
O965        O  0.68467051  0.76529949  0.94668337    -0.81300
O966        O  0.55850036  0.85818988  0.06681254    -0.66000
O967        O  0.63939351  0.83452661  0.96957009    -1.12600
C968        C  0.78315046  0.92198745  0.05704671     1.05600
O969        O  0.61939567  0.93586574  0.05167901    -0.79200
O970        O  0.72243802  0.98960692  0.02739125    -0.66800
Ni971      Ni  0.61489118  0.76314019  0.95222879     1.34900
C972        C  0.72363891  0.98712253  0.98765247     0.84300
O973        O  0.53030936  0.81494021  0.99261871    -0.79800
O974        O  0.54223942  0.75303651  0.95506871    -0.90000
C975        C  0.57888960  0.90552969  0.07568459     0.83900
O976        O  0.59959513  0.72575168  0.00794693    -0.68300
O977        O  0.74709225  0.92896549  0.08147729    -0.87500
C978        C  0.58262770  0.73609364  0.04381933     0.84700
C979        C  0.51328936  0.77467268  0.97111304     1.06300
H980        H  0.66606799  0.84340750  0.06177644     0.38100
O981        O  0.66538460  0.86918371  0.04105084    -1.10200
O982        O  0.71362070  0.94238803  0.97085412    -0.66800
Ni983      Ni  0.71050844  0.87137938  0.99110469     1.26300
O984        O  0.57804347  0.77854568  0.04901489    -0.67100
O985        O  0.77714945  0.90603849  0.01895918    -0.79400
C986        C  0.70689360  0.76521558  0.97995028     0.84100
O987        O  0.71250411  0.80165334  0.00629417    -0.66500
Ni988      Ni  0.68265043  0.93258157  0.06833911     1.27400
Ni989      Ni  0.59683777  0.84363046  0.01769978     1.26100
H990        H  0.63763950  0.85581710  0.94544367     0.38600
C991        C  0.94599679  0.52464078  0.25537191     0.45000
H992        H  0.93135862  0.52502681  0.28938401    -0.04000
C993        C  0.98015038  0.52291324  0.17646671     0.45100
H994        H  0.99461489  0.52148240  0.14260174    -0.04000
C995        C  0.98637676  0.99593118  0.24868615    -0.17700
C996        C  0.90141932  0.99378397  0.22680807    -0.17500
C997        C  0.98074485  0.57917740  0.23366037    -0.17800
C998        C  0.00242436  0.99356875  0.20685476    -0.17800
C999        C  0.91965942  0.99404077  0.18467482    -0.17400
C1000       C  0.99778602  0.57848841  0.19139795    -0.17700
C1001       C  0.52888437  0.70199823  0.11459002    -0.26800
C1002       C  0.56583104  0.69808667  0.08196157    -0.14800
C1003       C  0.58616132  0.65957850  0.08781110     0.35800
C1004       C  0.56794284  0.62543459  0.12467066    -0.26200
C1005       C  0.52857412  0.62731973  0.15584573    -0.15500
C1006       C  0.00666354  0.66360961  0.15550409     0.36900
N1007       N  0.96426663  0.66473061  0.18566153    -0.89700
H1008       H  0.01030279  0.72867914  0.11562927     0.18000
H1009       H  0.58343011  0.59577604  0.12808133     0.18000
N1010       N  0.62565649  0.65427440  0.05744569    -0.88700
H1011       H  0.95503483  0.69642762  0.17784056     0.35400
H1012       H  0.92906231  0.63084244  0.18311986     0.40500
H1013       H  0.65986602  0.69002900  0.05321190     0.40100
H1014       H  0.60911708  0.64485083  0.02844049     0.35000
C1015       C  0.83225784  0.89999592  0.10944366    -0.26800
C1016       C  0.83370209  0.93525439  0.07623365    -0.14800
C1017       C  0.86722087  0.98889553  0.07720990     0.35800
C1018       C  0.89318560  0.50922452  0.11416268    -0.26200
C1019       C  0.88740544  0.97225775  0.14892733    -0.15500
C1020       C  0.85899116  0.91812195  0.14577131     0.36900
N1021       N  0.85670205  0.88146241  0.17928241    -0.89700
H1022       H  0.80582429  0.85870937  0.10913259     0.18000
H1023       H  0.91620153  0.55094837  0.11621041     0.18000
N1024       N  0.87171633  0.52708646  0.04239276    -0.88700
H1025       H  0.87206892  0.85596601  0.16605005     0.35400
H1026       H  0.81578377  0.85934704  0.19049184     0.40500
H1027       H  0.88789219  0.01637169  0.01537560     0.40100
H1028       H  0.89573886  0.56559662  0.04895143     0.35000
C1029       C  0.57979112  0.99491254  0.16305029    -0.26800
C1030       C  0.03245077  0.96387799  0.19037526    -0.14800
C1031       C  0.00415443  0.91023287  0.18363701     0.35800
C1032       C  0.51990484  0.89150050  0.14454823    -0.26200
C1033       C  0.56479644  0.92427399  0.11624143    -0.15500
C1034       C  0.59720260  0.97556029  0.12755773     0.36900
N1035       N  0.64682989  0.00927997  0.10240222    -0.89700
H1036       H  0.60899911  0.54093433  0.17073647     0.18000
H1037       H  0.49669846  0.85115685  0.13786420     0.18000
N1038       N  0.95750439  0.87564790  0.21152902    -0.88700
H1039       H  0.68443400  0.52374989  0.12351668     0.35400
H1040       H  0.64299893  0.04320649  0.09184029     0.40500
H1041       H  0.95154957  0.89429775  0.23828919     0.40100
H1042       H  0.96629172  0.84500504  0.22319981     0.35000
C1043       C  0.77331657  0.96452622  0.29728451    -0.26800
C1044       C  0.77260841  0.92247056  0.32341475    -0.14800
C1045       C  0.80377494  0.89534906  0.30828408     0.35800
C1046       C  0.84056509  0.91529966  0.27145451    -0.26200
C1047       C  0.84661454  0.96138549  0.24873881    -0.15500
C1048       C  0.80990374  0.98391057  0.25996473     0.36900
N1049       N  0.81037937  0.02748250  0.23472042    -0.89700
H1050       H  0.74787449  0.98443631  0.30711265     0.18000
H1051       H  0.86821162  0.89732470  0.26301774     0.18000
N1052       N  0.79999192  0.84870179  0.33107608    -0.88700
H1053       H  0.80307524  0.01587708  0.20377967     0.35400
H1054       H  0.84916047  0.05802815  0.23280131     0.40500
H1055       H  0.83855272  0.85519169  0.33976975     0.40100
H1056       H  0.78884686  0.81855175  0.31030659     0.35000
C1057       C  0.99574480  0.66708490  0.32343640    -0.26800
C1058       C  0.55413582  0.68717163  0.32540821    -0.14800
C1059       C  0.58858897  0.67692297  0.29445201     0.35800
C1060       C  0.56551453  0.64591824  0.26074796    -0.26200
C1061       C  0.00623854  0.62245464  0.26125486    -0.15500
C1062       C  0.97294548  0.63532088  0.29094662     0.36900
N1063       N  0.91577984  0.61692944  0.28769899    -0.89700
H1064       H  0.96948656  0.67802286  0.34515307     0.18000
H1065       H  0.59109158  0.63579678  0.23777945     0.18000
N1066       N  0.64625089  0.69790764  0.29725689    -0.88700
H1067       H  0.89480103  0.59567503  0.31635568     0.35400
H1068       H  0.90666057  0.64952402  0.28410072     0.40500
H1069       H  0.66152622  0.73871869  0.29294198     0.40100
H1070       H  0.66551350  0.68588047  0.27233722     0.35000
C1071       C  0.97018547  0.95107854  0.32050104    -0.26800
C1072       C  0.50765879  0.97857847  0.28342686    -0.14800
C1073       C  0.56388469  0.99771389  0.28655333     0.35800
C1074       C  0.58214592  0.98065425  0.32155247    -0.26200
C1075       C  0.54499516  0.94482802  0.35349062    -0.15500
C1076       C  0.48836275  0.92898886  0.35174230     0.36900
N1077       N  0.44784071  0.89515640  0.38441978    -0.89700
H1078       H  0.92707058  0.94010323  0.31979899     0.18000
H1079       H  0.62564308  0.99389523  0.32264325     0.18000
N1080       N  0.60716987  0.54373299  0.25786411    -0.88700
H1081       H  0.96055523  0.92609607  0.41926120     0.35400
H1082       H  0.44681338  0.85756305  0.38419306     0.40500
H1083       H  0.63357264  0.52751367  0.24586786     0.40100
H1084       H  0.63010319  0.57700000  0.27318150     0.35000
C1085       C  0.87428530  0.52906660  0.62319379    -0.26800
C1086       C  0.91193262  0.55862220  0.58877099    -0.14800
C1087       C  0.96787848  0.57369234  0.59079123     0.35800
C1088       C  0.98521846  0.56182158  0.62840230    -0.26200
C1089       C  0.94808387  0.53367438  0.66378968    -0.15500
C1090       C  0.89166655  0.51652149  0.66062970     0.36900
N1091       N  0.85270826  0.98894575  0.69299409    -0.89700
H1092       H  0.83103531  0.51736397  0.62179595     0.18000
H1093       H  0.52614940  0.57563665  0.63671039     0.18000
N1094       N  0.00681527  0.60063988  0.55453045    -0.88700
H1095       H  0.85255926  0.01211325  0.71818194     0.35400
H1096       H  0.86157481  0.95818232  0.70385109     0.40500
H1097       H  0.99919064  0.57504738  0.53003367     0.40100
H1098       H  0.54924666  0.62248282  0.57294327     0.35000
C1099       C  0.62533416  0.49850477  0.66223553    -0.26800
C1100       C  0.60510446  0.53101550  0.68348490    -0.14800
C1101       C  0.62687767  0.58477775  0.66978945     0.35800
C1102       C  0.66523193  0.60382986  0.63328325    -0.26200
C1103       C  0.68321935  0.57060097  0.61058229    -0.15500
C1104       C  0.66429004  0.51760416  0.62613222     0.36900
N1105       N  0.69223489  0.98667743  0.60841398    -0.89700
H1106       H  0.61924603  0.96429215  0.67736500     0.18000
H1107       H  0.68022576  0.64465366  0.62180573     0.18000
N1108       N  0.60981974  0.61991075  0.69256608    -0.88700
H1109       H  0.67371329  0.94954371  0.62469463     0.35400
H1110       H  0.72201278  0.49269182  0.60695267     0.40500
H1111       H  0.56791997  0.60766245  0.69246446     0.40100
H1112       H  0.62829015  0.65775007  0.67754499     0.35000
C1113       C  0.88074810  0.82815400  0.63216740    -0.26800
C1114       C  0.91830503  0.82358871  0.60129126    -0.14800
C1115       C  0.97453819  0.85446609  0.60273071     0.35800
C1116       C  0.99187360  0.88787397  0.63564507    -0.26200
C1117       C  0.95448865  0.89069561  0.66803606    -0.15500
C1118       C  0.89816463  0.86140417  0.66535393     0.36900
N1119       N  0.85800889  0.86519603  0.69574775    -0.89700
H1120       H  0.83767643  0.80380939  0.63181412     0.18000
H1121       H  0.53211320  0.91302906  0.63433852     0.18000
N1122       N  0.50985420  0.85539468  0.56880251    -0.88700
H1123       H  0.83452256  0.82764387  0.71027979     0.35400
H1124       H  0.83214325  0.87613808  0.67894872     0.40500
H1125       H  0.00573508  0.86056171  0.54109030     0.40100
H1126       H  0.50919031  0.81790345  0.56936862     0.35000
C1127       C  0.96099783  0.58994692  0.76695447    -0.26800
C1128       C  0.93252304  0.53548591  0.76580869    -0.14800
C1129       C  0.89124690  0.50762996  0.79841458     0.35800
C1130       C  0.88450994  0.53185839  0.83446578    -0.26200
C1131       C  0.91594542  0.58515116  0.83826953    -0.15500
C1132       C  0.95268838  0.61552367  0.80305103     0.36900
N1133       N  0.98130156  0.67133286  0.80394619    -0.89700
H1134       H  0.99213187  0.61174312  0.74118104     0.18000
H1135       H  0.85391469  0.50778950  0.85984680     0.18000
N1136       N  0.85657101  0.45375718  0.79582725    -0.88700
H1137       H  0.00505434  0.68756396  0.77484701     0.35400
H1138       H  0.00828504  0.67850608  0.82726852     0.40500
H1139       H  0.81667559  0.95035168  0.79653938     0.40100
H1140       H  0.86011065  0.93456752  0.82296446     0.35000
C1141       C  0.59621979  0.49134249  0.80501401    -0.26800
C1142       C  0.57682502  0.52373139  0.78409083    -0.14800
C1143       C  0.58932618  0.57444194  0.79813179     0.35800
C1144       C  0.62592885  0.59392681  0.82902196    -0.26200
C1145       C  0.64864998  0.56277750  0.84730503    -0.15500
C1146       C  0.63130524  0.50996842  0.83686689     0.36900
N1147       N  0.65116224  0.47603602  0.85782387    -0.89700
H1148       H  0.57891333  0.95553317  0.80677878     0.18000
H1149       H  0.63836734  0.63414397  0.83721676     0.18000
N1150       N  0.56453770  0.60629732  0.78193313    -0.88700
H1151       H  0.62179343  0.94240021  0.86278226     0.35400
H1152       H  0.63695998  0.47162366  0.89027710     0.40500
H1153       H  0.59547727  0.64211617  0.76958520     0.40100
H1154       H  0.54379207  0.61438767  0.80821626     0.35000
C1155       C  0.95037323  0.81447332  0.81948216    -0.26800
C1156       C  0.89907423  0.80283208  0.84198295    -0.14800
C1157       C  0.86414238  0.82207463  0.82453642     0.35800
C1158       C  0.88341789  0.85744801  0.78822914    -0.26200
C1159       C  0.93686166  0.87402543  0.76886438    -0.15500
C1160       C  0.96898373  0.84901827  0.78266817     0.36900
N1161       N  0.52095272  0.85901305  0.75989235    -0.89700
H1162       H  0.97675122  0.79770735  0.83111361     0.18000
H1163       H  0.85659421  0.87261020  0.77568594     0.18000
N1164       N  0.80911978  0.80558030  0.84334802    -0.88700
H1165       H  0.54602399  0.89900219  0.75768103     0.31800
H1166       H  0.51385436  0.84796632  0.72880243     0.40500
H1167       H  0.78324139  0.78808226  0.82011677     0.40100
H1168       H  0.80338014  0.83884785  0.85170578     0.35000
loop_ 
_geom_bond_atom_site_label_1 
_geom_bond_atom_site_label_2 
_geom_bond_distance 
_geom_bond_site_symmetry_2 
_ccdc_geom_bond_type 
O1           Ni7   1.872       .  S
O1           C22   1.252       .  A
O2          Ni25   2.002       .  S
O2           C11   1.314       .  A
O3           Ni7   1.866       .  S
O3          Ni25   1.874       .  S
O3          Ni19   1.917       .  S
O3           H26   0.966       .  S
C4           O21   1.266       .  A
C4           O13   1.252       .  A
C4          C687   1.427       .  S
O5          Ni24   1.842       .  S
O5           C11   1.246       .  A
O6          Ni24   1.918       .  S
O6            C8   1.272       .  A
Ni7          O10   1.878       .  S
Ni7          O12   1.865       .  S
C8           O18   1.266       .  A
C8          C280   1.480       .  S
O9          Ni25   1.970       .  S
O9           C15   1.297       .  A
O10          C15   1.276       .  A
C11         C110   1.493       .  S
O12          C14   1.254       .  A
O13         Ni24   1.884       .  S
C14          O20   1.324       .  A
C14         C388   1.529   1_545  S
C15         C269   1.469       .  S
H16          O17   0.969       .  S
O17         Ni25   1.962       .  S
O17         Ni19   1.916       .  S
O17         Ni24   1.940       .  S
O18         Ni19   1.922       .  S
Ni19         O23   1.928       .  S
Ni19         O21   1.881       .  S
O20         Ni25   2.066       .  S
C22          O23   1.255       .  A
C22         C255   1.474       .  S
O27         Ni33   1.884       .  S
O27          C48   1.252       .  A
O28         Ni51   2.031       .  S
O28          C37   1.325       .  A
O29         Ni33   1.881       .  S
O29         Ni51   1.891       .  S
O29         Ni45   1.901       .  S
O29          H52   0.965       .  S
C30          O47   1.262       .  A
C30          O39   1.266       .  A
C30         C369   1.440   1_545  S
O31         Ni50   1.893       .  S
O31          C37   1.258       .  A
O32         Ni50   1.909       .  S
O32          C34   1.266       .  A
Ni33         O36   1.880       .  S
Ni33         O38   1.871       .  S
C34          O44   1.273       .  A
C34         C227   1.485       .  S
O35         Ni51   1.951       .  S
O35          C41   1.293       .  A
O36          C41   1.276       .  A
C37          C84   1.533       .  S
O38          C40   1.254       .  A
O39         Ni50   1.922       .  S
C40          O46   1.332       .  A
C40         C654   1.538       .  S
C41         C238   1.451       .  S
H42          O43   0.966       .  S
O43         Ni51   1.936       .  S
O43         Ni45   1.915       .  S
O43         Ni50   1.945       .  S
O44         Ni45   1.951       .  S
Ni45         O49   1.912       .  S
Ni45         O47   1.872       .  S
O46         Ni51   2.078       .  S
C48          O49   1.260       .  A
C48         C210   1.464       .  S
C53          H54   1.112       .  S
C53         C643   1.543       .  S
C53         C350   1.533   1_655  S
C53         C933   1.536       .  S
C55          H56   1.110       .  S
C55         C353   1.538       .  S
C55         C936   1.527   1_455  S
C55         C646   1.530   1_455  S
C57         C929   1.539   1_545  S
C57          C60   1.372       .  D
C57         C252   1.471       .  S
C58         C345   1.533   1_445  S
C58          C61   1.376       .  D
C58         C266   1.489       .  S
C59         C637   1.547       .  S
C59          C62   1.371       .  D
C59         C283   1.486       .  S
C60         C931   1.528   1_545  S
C60         C213   1.477       .  S
C61         C347   1.539   1_545  S
C61         C224   1.484       .  S
C62         C639   1.529       .  S
C62         C241   1.482       .  S
O63         Ni69   1.896       .  S
O63          C84   1.259       .  A
O64         Ni87   1.904       .  S
O64          C73   1.262       .  A
O65         Ni69   1.941       .  S
O65         Ni87   1.915       .  S
O65         Ni81   1.943       .  S
O65          H88   0.966       .  S
C66          O83   1.298       .  A
C66          O75   1.277       .  A
C66         C182   1.469       .  S
O67         Ni86   1.893       .  S
O67          C73   1.253       .  A
O68         Ni86   1.876   1_655  S
O68          C70   1.255   1_655  A
Ni69         O72   1.918       .  S
Ni69         O74   1.893       .  S
C70          O80   1.332       .  A
C70         C624   1.539   1_455  S
O71         Ni87   1.881       .  S
O71          C77   1.262       .  A
O72          C77   1.265       .  A
C73         C199   1.463       .  S
O74          C76   1.265       .  A
O75         Ni86   1.881       .  S
C76          O82   1.276       .  A
C76         C168   1.490       .  S
C77         C322   1.446       .  S
H78          O79   0.965       .  S
O79         Ni87   1.899       .  S
O79         Ni81   1.888       .  S
O79         Ni86   1.877       .  S
O80         Ni81   2.077       .  S
Ni81         O85   2.032       .  S
Ni81         O83   1.971       .  S
O82         Ni87   1.961       .  S
C84          O85   1.326       .  A
O89         Ni95   1.858       .  S
O89         C110   1.251       .  A
O90        Ni113   1.935       .  S
O90          C99   1.263       .  A
O91         Ni95   1.945       .  S
O91        Ni113   1.914   1_556  S
O91        Ni107   1.960       .  S
O91         H114   0.968       .  S
C92         O109   1.290       .  A
C92         O101   1.274       .  A
C92         C140   1.450       .  S
O93        Ni112   1.872       .  S
O93          C99   1.247       .  A
O94        Ni112   1.897       .  S
O94          C96   1.254   1_554  A
Ni95         O98   1.856       .  S
Ni95        O100   1.937   1_556  S
C96         O106   1.310       .  A
C96         C306   1.529       .  S
O97        Ni113   1.898   1_556  S
O97         C103   1.274       .  A
O98         C103   1.256       .  A
C99         C157   1.474       .  S
O100        C102   1.271       .  A
O101       Ni112   1.871       .  S
C102        O108   1.261       .  A
C102        C126   1.484       .  S
C103        C588   1.421   1_455  S
H104        O105   0.965       .  S
O105       Ni113   1.914       .  S
O105       Ni107   1.894   1_554  S
O105       Ni112   1.900       .  S
O106       Ni107   2.036       .  S
Ni107       O111   2.020   1_556  S
Ni107       O109   1.955   1_556  S
O108       Ni113   1.898       .  S
C110        O111   1.304   1_556  A
C115        H116   1.111       .  S
C115        C121   1.529       .  S
C115        C412   1.538   1_545  S
C115        C411   1.522   1_545  S
C117        H118   1.112       .  S
C117        C124   1.532       .  S
C117        C415   1.525   1_545  S
C117        C414   1.527   1_545  S
C119        C407   1.521       .  S
C119        C122   1.364       .  D
C119        C780   1.468       .  S
C120        C407   1.540       .  S
C120        C123   1.373       .  D
C120        C171   1.477       .  S
C121        C124   1.376       .  D
C121        C185   1.476       .  S
C122        C409   1.528       .  S
C122        C154   1.462       .  S
C123        C409   1.520       .  S
C123        C143   1.476       .  S
C124        C713   1.486       .  S
C125        C126   1.410       .  A
C125        C714   1.405       .  A
C125        H716   1.084       .  S
C126        C127   1.412       .  A
C127        C128   1.398       .  A
C127        N134   1.431       .  S
C128        C129   1.404       .  A
C128        H133   1.080       .  S
C129        C708   1.484   1_455  S
C129        C714   1.409       .  A
C130        C709   1.405       .  A
C130        C713   1.408       .  A
C130        N131   1.438       .  S
N131        H135   1.045       .  S
N131        H136   1.045       .  S
H132        C709   1.084       .  S
N134        H137   1.045       .  S
N134        H138   1.044       .  S
C139        C140   1.402       .  A
C139        C144   1.401       .  A
C139        H146   1.085       .  S
C140        C141   1.405       .  A
C141        C434   1.400       .  A
C141        N440   1.438       .  S
C142        C433   1.401   1_545  A
C142        C435   1.403   1_545  A
C142        H147   1.085       .  S
C143        C144   1.407       .  A
C143        C434   1.404       .  A
C144        N145   1.428       .  S
N145        H149   1.045       .  S
N145        H150   1.046       .  S
N148        C433   1.437   1_545  S
N148        H152   1.046       .  S
N148        H443   1.046       .  S
H151        N440   1.045       .  S
C153        C158   1.385       .  A
C153        C738   1.389       .  A
C153        H452   1.083       .  S
C154        C155   1.414       .  A
C154        C737   1.391       .  A
C155        C740   1.399       .  A
C155        N162   1.436       .  S
C156        C157   1.403       .  A
C156        C739   1.402       .  A
C156        H161   1.084   1_455  S
C157        C158   1.419       .  A
C158        N159   1.434       .  S
N159        H164   1.046       .  S
N159        H455   1.046       .  S
H160        C445   1.083   1_545  S
N162        H165   1.041       .  S
N162        H166   1.045       .  S
H163        N451   1.046       .  S
C167        C168   1.410       .  A
C167        C172   1.408       .  A
C167        H174   1.083       .  S
C168        C169   1.413       .  A
C169        C170   1.396       .  A
C169        N176   1.433       .  S
C170        C171   1.397       .  A
C170        H175   1.081       .  S
C171        C172   1.410       .  A
C172        N173   1.432       .  S
N173        H177   1.046       .  S
N173        H178   1.042       .  S
N176        H179   1.046       .  S
N176        H180   1.046       .  S
C181        C186   1.390       .  A
C181        C766   1.400       .  A
C181        H188   1.085       .  S
C182        C183   1.408       .  A
C182        C765   1.404   1_455  A
C183        C184   1.413       .  A
C183        N190   1.437       .  S
C184        C769   1.409       .  A
C184        H189   1.083       .  S
C185        C186   1.405       .  A
C185        C768   1.407       .  A
C186        N187   1.431       .  S
N187        H191   1.046       .  S
N187        H192   1.046       .  S
N190        H193   1.045       .  S
N190        H194   1.046       .  S
C195        C780   1.397       .  A
C195        C784   1.390       .  A
C195        H202   1.082       .  S
C196        C703   1.464   1_455  S
C196        C197   1.407       .  A
C196        C779   1.396   1_455  A
C197        C198   1.390       .  A
C197        N496   1.430       .  S
C198        C199   1.400       .  A
C198        H203   1.084       .  S
C199        C200   1.419   1_455  A
C200        C779   1.390       .  A
C200        N201   1.433       .  S
N201        H206   1.044       .  S
N201        H789   1.045       .  S
N204        C489   1.430   1_545  S
N204        H207   1.046       .  S
N204        H208   1.045       .  S
H205        N785   1.045       .  S
C209        C210   1.401       .  A
C209        C214   1.393       .  A
C209        H216   1.084       .  S
C210        C211   1.408       .  A
C211        C212   1.394       .  A
C211        N218   1.440       .  S
C212        C213   1.405       .  A
C212        H801   1.079       .  S
C213        C214   1.415       .  A
C214        N507   1.429   1_545  S
N215        C506   1.431       .  S
N215        H219   1.042       .  S
N215        H220   1.042       .  S
H217        C796   1.079   1_455  S
N218        H221   1.046       .  S
N218        H806   1.046       .  S
H222        N802   1.046       .  S
C223        C224   1.401       .  A
C223        C228   1.407       .  A
C223        H522   1.084   1_545  S
C224        C225   1.414       .  A
C225        C226   1.407       .  A
C225        N232   1.435       .  S
C226        C227   1.403       .  A
C226        H231   1.084       .  S
C227        C228   1.414       .  A
C228        N521   1.437   1_545  S
N229        C520   1.437       .  S
N229        H233   1.046       .  S
N229        H526   1.044       .  S
H230        C515   1.084       .  S
N232        H235   1.042       .  S
N232        H236   1.046       .  S
H234        N521   1.045   1_545  S
C237        C238   1.396       .  A
C237        C242   1.401       .  A
C237        H244   1.085       .  S
C238        C239   1.408       .  A
C239        C240   1.390       .  A
C239        N830   1.434       .  S
C240        C241   1.403       .  A
C240        H829   1.083       .  S
C241        C242   1.415       .  A
C242        N243   1.428       .  S
N243        H247   1.046       .  S
N243        H248   1.045       .  S
H245        C824   1.084   1_455  S
N246        C823   1.434   1_455  S
N246        H250   1.044       .  S
N246        H833   1.046   1_455  S
H249        N830   1.046       .  S
C251        C252   1.405       .  A
C251        C256   1.416       .  A
C251        H258   1.083       .  S
C252        C253   1.395       .  A
C253        C254   1.377       .  A
C253        N260   1.424   1_545  S
C254        C255   1.399       .  A
C254        H259   1.084       .  S
C255        C256   1.416       .  A
C256        N257   1.437       .  S
N257        H261   1.046       .  S
N257        H262   1.045       .  S
N260        H555   1.046       .  S
N260        H556   1.046       .  S
H263        N552   1.046       .  S
H264        N552   1.046       .  S
C265        C266   1.398   1_565  A
C265        C270   1.402   1_565  A
C265        H564   1.077       .  S
C266        C267   1.417       .  A
C267        C268   1.405       .  A
C267        N274   1.425       .  S
C268        C269   1.392       .  A
C268        H273   1.084       .  S
C269        C270   1.414       .  A
C270        N271   1.439   1_545  S
N271        H276   1.045       .  S
N271        H567   1.046       .  S
H272        C557   1.080       .  S
N274        H277   1.045       .  S
N274        H278   1.043       .  S
H275        N563   1.046       .  S
C279        C280   1.411       .  A
C279        C284   1.402       .  A
C279        H286   1.084       .  S
C280        C281   1.404       .  A
C281        C282   1.399       .  A
C281        N288   1.433       .  S
C282        C283   1.399       .  A
C282        H287   1.072       .  S
C283        C284   1.408       .  A
C284        N869   1.432       .  S
N285        C868   1.433   1_455  S
N285        H289   1.043       .  S
N285        H290   1.046       .  S
N288        H291   1.045       .  S
N288        H292   1.045       .  S
O293       Ni299   1.872       .  S
O293        C314   1.249       .  A
O294       Ni317   2.005       .  S
O294        C303   1.314       .  A
O295       Ni299   1.866       .  S
O295       Ni317   1.875       .  S
O295       Ni311   1.915       .  S
O295        H318   0.965       .  S
C296        O313   1.264       .  A
C296        O305   1.253       .  A
C296        C979   1.424       .  S
O297       Ni316   1.845       .  S
O297        C303   1.247       .  A
O298       Ni316   1.920       .  S
O298        C300   1.272       .  A
Ni299       O302   1.878       .  S
Ni299       O304   1.857       .  S
C300        O310   1.267       .  A
C300        C572   1.481       .  S
O301       Ni317   1.970       .  S
O301        C307   1.298       .  A
O302        C307   1.277       .  A
C303        C402   1.494       .  S
O304        C306   1.251       .  A
O305       Ni316   1.882       .  S
C306        O312   1.323       .  A
C307        C561   1.466       .  S
H308        O309   0.969       .  S
O309       Ni317   1.960       .  S
O309       Ni311   1.917       .  S
O309       Ni316   1.939       .  S
O310       Ni311   1.927       .  S
Ni311       O315   1.926       .  S
Ni311       O313   1.876       .  S
O312       Ni317   2.070       .  S
C314        O315   1.253       .  A
C314        C547   1.469       .  S
O319       Ni325   1.882       .  S
O319        C340   1.253       .  A
O320       Ni343   2.026       .  S
O320        C329   1.324       .  A
O321       Ni325   1.888       .  S
O321       Ni343   1.891       .  S
O321       Ni337   1.913       .  S
O321        H344   0.966       .  S
C322        O339   1.263       .  A
C322        O331   1.266       .  A
O323       Ni342   1.890       .  S
O323        C329   1.257       .  A
O324       Ni342   1.903       .  S
O324        C326   1.266       .  A
Ni325       O328   1.886       .  S
Ni325       O330   1.878       .  S
C326        O336   1.272       .  A
C326        C519   1.487       .  S
O327       Ni343   1.966       .  S
O327        C333   1.295       .  A
O328        C333   1.275       .  A
C329        C376   1.529       .  S
O330        C332   1.256       .  A
O331       Ni342   1.917       .  S
C332        O338   1.332       .  A
C332        C946   1.543       .  S
C333        C530   1.469       .  S
H334        O335   0.966       .  S
O335       Ni343   1.943       .  S
O335       Ni337   1.916       .  S
O335       Ni342   1.943       .  S
O336       Ni337   1.950       .  S
Ni337       O341   1.906       .  S
Ni337       O339   1.885       .  S
O338       Ni343   2.079       .  S
C340        O341   1.258       .  A
C340        C502   1.462       .  S
C345        H346   1.112       .  S
C345        C935   1.547       .  S
C345        C641   1.537   1_565  S
C347        H348   1.111       .  S
C347        C644   1.529   1_465  S
C347        C938   1.530   1_455  S
C349        C637   1.538       .  S
C349        C352   1.368       .  D
C349        C544   1.469       .  S
C350        C353   1.376       .  D
C350        C558   1.486       .  S
C351        C929   1.549       .  S
C351        C354   1.372       .  D
C351        C575   1.487       .  S
C352        C639   1.524       .  S
C352        C505   1.470       .  S
C353        C516   1.485       .  S
C354        C931   1.531       .  S
C354        C533   1.495       .  S
O355       Ni361   1.889       .  S
O355        C376   1.258       .  A
O356       Ni379   1.905       .  S
O356        C365   1.262       .  A
O357       Ni361   1.938       .  S
O357       Ni379   1.916       .  S
O357       Ni373   1.942       .  S
O357        H380   0.966       .  S
C358        O375   1.295       .  A
C358        O367   1.276       .  A
C358        C474   1.468       .  S
O359       Ni378   1.894       .  S
O359        C365   1.254       .  A
O360       Ni378   1.881   1_655  S
O360        C362   1.257   1_655  A
Ni361       O364   1.909       .  S
Ni361       O366   1.894       .  S
C362        O372   1.330       .  A
C362        C916   1.539   1_455  S
O363       Ni379   1.883       .  S
O363        C369   1.260       .  A
O364        C369   1.263       .  A
C365        C491   1.462       .  S
O366        C368   1.266       .  A
O367       Ni378   1.882       .  S
C368        O374   1.277       .  A
C368        C460   1.492       .  S
H370        O371   0.965       .  S
O371       Ni379   1.897       .  S
O371       Ni373   1.889       .  S
O371       Ni378   1.877       .  S
O372       Ni373   2.071       .  S
Ni373       O377   2.027       .  S
Ni373       O375   1.967       .  S
O374       Ni379   1.964       .  S
C376        O377   1.324       .  A
O381       Ni387   1.857       .  S
O381        C402   1.251       .  A
O382       Ni405   1.932       .  S
O382        C391   1.261       .  A
O383       Ni387   1.945       .  S
O383       Ni405   1.913   1_556  S
O383       Ni399   1.968       .  S
O383        H406   0.968       .  S
C384        O401   1.292       .  A
C384        O393   1.274       .  A
C384        C432   1.453       .  S
O385       Ni404   1.868       .  S
O385        C391   1.245       .  A
O386       Ni404   1.892       .  S
O386        C388   1.252   1_554  A
Ni387       O390   1.864       .  S
Ni387       O392   1.935   1_556  S
C388        O398   1.310       .  A
O389       Ni405   1.905   1_556  S
O389        C395   1.274       .  A
O390        C395   1.258       .  A
C391        C449   1.471       .  S
O392        C394   1.270       .  A
O393       Ni404   1.868       .  S
C394        O400   1.262       .  A
C394        C418   1.489       .  S
C395        C880   1.430   1_455  S
H396        O397   0.965       .  S
O397       Ni405   1.921       .  S
O397       Ni399   1.895   1_554  S
O397       Ni404   1.903       .  S
O398       Ni399   2.040       .  S
Ni399       O403   2.026   1_556  S
Ni399       O401   1.962   1_556  S
O400       Ni405   1.903       .  S
C402        O403   1.306   1_556  A
C407        H408   1.111       .  S
C407        C413   1.529       .  S
C409        H410   1.112       .  S
C409        C416   1.534       .  S
C411        C414   1.362       .  D
C411       C1072   1.461       .  S
C412        C415   1.377       .  D
C412        C463   1.484       .  S
C413        C416   1.376       .  D
C413        C477   1.475       .  S
C414        C446   1.467       .  S
C415        C435   1.472       .  S
C416       C1005   1.486       .  S
C417        C418   1.411       .  A
C417       C1006   1.405       .  A
C417       H1008   1.084       .  S
C418        C419   1.414       .  A
C419        C420   1.397       .  A
C419        N426   1.431       .  S
C420        C421   1.404       .  A
C420        H425   1.080       .  S
C421       C1000   1.484   1_455  S
C421       C1006   1.409       .  A
C422       C1001   1.404       .  A
C422       C1005   1.409       .  A
C422        N423   1.438       .  S
N423        H427   1.046       .  S
N423        H428   1.045       .  S
H424       C1001   1.084       .  S
N426        H429   1.044       .  S
N426        H430   1.045       .  S
C431        C432   1.401       .  A
C431        C436   1.400       .  A
C431        H438   1.084       .  S
C432        C433   1.406       .  A
C434        H439   1.084       .  S
C435        C436   1.406       .  A
C436        N437   1.428       .  S
N437        H441   1.045       .  S
N437        H442   1.045       .  S
N440        H444   1.046       .  S
C445       C1030   1.390       .  A
C445        C450   1.386       .  A
C446       C1029   1.389       .  A
C446        C447   1.415       .  A
C447       C1032   1.402       .  A
C447        N454   1.435       .  S
C448       C1031   1.399       .  A
C448        C449   1.400       .  A
C448        H453   1.084   1_455  S
C449        C450   1.420       .  A
C450        N451   1.434   1_565  S
N451        H456   1.046       .  S
N454        H457   1.041       .  S
N454        H458   1.046       .  S
C459        C460   1.409       .  A
C459        C464   1.409       .  A
C459        H466   1.084       .  S
C460        C461   1.414       .  A
C461        C462   1.399       .  A
C461        N468   1.433       .  S
C462        C463   1.398       .  A
C462        H467   1.082       .  S
C463        C464   1.413       .  A
C464        N465   1.432   1_565  S
N465        H469   1.045       .  S
N465        H470   1.042       .  S
N468        H471   1.046       .  S
N468        H472   1.045       .  S
C473       C1058   1.402       .  A
C473        C478   1.389       .  A
C473        H480   1.085       .  S
C474       C1057   1.403   1_455  A
C474        C475   1.409       .  A
C475        C476   1.413       .  A
C475        N482   1.437       .  S
C476       C1061   1.409       .  A
C476        H481   1.082       .  S
C477       C1060   1.409       .  A
C477        C478   1.401       .  A
C478        N479   1.431       .  S
N479        H483   1.046       .  S
N479        H484   1.046       .  S
N482        H485   1.045       .  S
N482        H486   1.046       .  S
C487       C1072   1.395       .  A
C487       C1076   1.387       .  A
C487        H494   1.079       .  S
C488        C995   1.468   1_455  S
C488       C1071   1.399   1_455  A
C488        C489   1.407       .  A
C489        C490   1.392       .  A
C490        C491   1.401       .  A
C490        H495   1.084       .  S
C491        C492   1.415   1_455  A
C492       C1071   1.391       .  A
C492        N493   1.434       .  S
N493       H1081   1.046       .  S
N493        H498   1.043       .  S
N496        H499   1.046       .  S
N496        H500   1.045       .  S
H497       N1077   1.045       .  S
C501        C502   1.403       .  A
C501        C506   1.392       .  A
C501        H508   1.083       .  S
C502        C503   1.408       .  A
C503        C504   1.391       .  A
C503        N510   1.439       .  S
C504        C505   1.402       .  A
C504       H1093   1.078       .  S
C505        C506   1.412       .  A
N507        H511   1.042   1_565  S
N507        H512   1.042       .  S
H509       C1088   1.078   1_455  S
N510        H513   1.046       .  S
N510       H1098   1.046       .  S
H514       N1094   1.046       .  S
C515        C516   1.402       .  A
C515        C520   1.409       .  A
C516        C517   1.415       .  A
C517        C518   1.405       .  A
C517        N524   1.436       .  S
C518        C519   1.402       .  A
C518        H523   1.084       .  S
C519        C520   1.414       .  A
N521        H525   1.046       .  S
N524        H527   1.041       .  S
N524        H528   1.046       .  S
C529        C530   1.397       .  A
C529        C534   1.407       .  A
C529        H536   1.084       .  S
C530        C531   1.413       .  A
C531        C532   1.397       .  A
C531       N1122   1.433       .  S
C532        C533   1.402       .  A
C532       H1121   1.084       .  S
C533        C534   1.418       .  A
C534        N535   1.427       .  S
N535        H539   1.046       .  S
N535        H540   1.046       .  S
H537       C1116   1.084   1_455  S
N538       C1115   1.434   1_455  S
N538       H1125   1.046       .  S
N538        H542   1.044       .  S
H541       N1122   1.046       .  S
C543        C544   1.403       .  A
C543        C548   1.412       .  A
C543        H550   1.083       .  S
C544        C545   1.395       .  A
C545        C546   1.375       .  A
C545        N552   1.422       .  S
C546        C547   1.399       .  A
C546        H551   1.084       .  S
C547        C548   1.414       .  A
C548        N549   1.437       .  S
N549        H553   1.046       .  S
N549        H554   1.045       .  S
C557        C558   1.399       .  A
C557        C562   1.402       .  A
C558        C559   1.416       .  A
C559        C560   1.404       .  A
C559        N566   1.425       .  S
C560        C561   1.393       .  A
C560        H565   1.084       .  S
C561        C562   1.413       .  A
C562        N563   1.439       .  S
N563        H568   1.045       .  S
N566        H569   1.046       .  S
N566        H570   1.044       .  S
C571        C572   1.410       .  A
C571        C576   1.404       .  A
C571        H578   1.084       .  S
C572        C573   1.404       .  A
C573        C574   1.401       .  A
C573        N580   1.432       .  S
C574        C575   1.401       .  A
C574        H579   1.074       .  S
C575        C576   1.409       .  A
C576       N1161   1.433       .  S
N577       C1160   1.433   1_455  S
N577        H581   1.042       .  S
N577        H582   1.045       .  S
N580        H583   1.046       .  S
N580        H584   1.045       .  S
O585       Ni591   1.873       .  S
O585        C606   1.251       .  A
O586       Ni609   2.000       .  S
O586        C595   1.313       .  A
O587       Ni591   1.866       .  S
O587       Ni609   1.876       .  S
O587       Ni603   1.916       .  S
O587        H610   0.966       .  S
C588        O605   1.267       .  A
C588        O597   1.252       .  A
O589       Ni608   1.847       .  S
O589        C595   1.248       .  A
O590       Ni608   1.917       .  S
O590        C592   1.272       .  A
Ni591       O594   1.877       .  S
Ni591       O596   1.866       .  S
C592        O602   1.267       .  A
C592        C864   1.482       .  S
O593       Ni609   1.970       .  S
O593        C599   1.296       .  A
O594        C599   1.276       .  A
C595        C694   1.491       .  S
O596        C598   1.253       .  A
O597       Ni608   1.877       .  S
C598        O604   1.323       .  A
C598        C972   1.531   1_545  S
C599        C853   1.466       .  S
H600        O601   0.969       .  S
O601       Ni609   1.957       .  S
O601       Ni603   1.917       .  S
O601       Ni608   1.937       .  S
O602       Ni603   1.929       .  S
Ni603       O607   1.928       .  S
Ni603       O605   1.878       .  S
O604       Ni609   2.066       .  S
C606        O607   1.257       .  A
C606        C839   1.474       .  S
O611       Ni617   1.884       .  S
O611        C632   1.252       .  A
O612       Ni635   2.031       .  S
O612        C621   1.325       .  A
O613       Ni617   1.886       .  S
O613       Ni635   1.892       .  S
O613       Ni629   1.908       .  S
O613        H636   0.966       .  S
C614        O631   1.262       .  A
C614        O623   1.266       .  A
C614        C953   1.443   1_545  S
O615       Ni634   1.894       .  S
O615        C621   1.259       .  A
O616       Ni634   1.905       .  S
O616        C618   1.266       .  A
Ni617       O620   1.883       .  S
Ni617       O622   1.874       .  S
C618        O628   1.272       .  A
C618        C811   1.486       .  S
O619       Ni635   1.962       .  S
O619        C625   1.295       .  A
O620        C625   1.276       .  A
C621        C668   1.534       .  S
O622        C624   1.255       .  A
O623       Ni634   1.918       .  S
C624        O630   1.332       .  A
C625        C822   1.461       .  S
H626        O627   0.965       .  S
O627       Ni635   1.941       .  S
O627       Ni629   1.916       .  S
O627       Ni634   1.945       .  S
O628       Ni629   1.951       .  S
Ni629       O633   1.910       .  S
Ni629       O631   1.879       .  S
O630       Ni635   2.077       .  S
C632        O633   1.259       .  A
C632        C794   1.463       .  S
C637        H638   1.112       .  S
C637        C934   1.538       .  S
C639        H640   1.111       .  S
C639        C937   1.534       .  S
C641        C644   1.373       .  D
C641        C836   1.472       .  S
C642        C929   1.532   1_545  S
C642        C645   1.377       .  D
C642        C850   1.494       .  S
C643        C646   1.371       .  D
C643        C867   1.486       .  S
C644        C797   1.474       .  S
C645        C931   1.541   1_545  S
C645        C808   1.484       .  S
C646        C825   1.489       .  S
O647       Ni653   1.895       .  S
O647        C668   1.258       .  A
O648       Ni671   1.907       .  S
O648        C657   1.260       .  A
O649       Ni653   1.941       .  S
O649       Ni671   1.918       .  S
O649       Ni665   1.936       .  S
O649        H672   0.966       .  S
C650        O667   1.293       .  A
C650        O659   1.276       .  A
C650        C766   1.459       .  S
O651       Ni670   1.896       .  S
O651        C657   1.254       .  A
O652       Ni670   1.877       .  S
O652        C654   1.256       .  A
Ni653       O656   1.914       .  S
Ni653       O658   1.895       .  S
C654        O664   1.332       .  A
O655       Ni671   1.875       .  S
O655        C661   1.259       .  A
O656        C661   1.265       .  A
C657        C783   1.466       .  S
O658        C660   1.265       .  A
O659       Ni670   1.881       .  S
C660        O666   1.274       .  A
C660        C752   1.490       .  S
C661        C906   1.438       .  S
H662        O663   0.965       .  S
O663       Ni671   1.896       .  S
O663       Ni665   1.894       .  S
O663       Ni670   1.880       .  S
O664       Ni665   2.074       .  S
Ni665       O669   2.032       .  S
Ni665       O667   1.957       .  S
O666       Ni671   1.956       .  S
C668        O669   1.325       .  A
O673       Ni679   1.859       .  S
O673        C694   1.251       .  A
O674       Ni697   1.936       .  S
O674        C683   1.264       .  A
O675       Ni679   1.944       .  S
O675       Ni697   1.915   1_556  S
O675       Ni691   1.965       .  S
O675        H698   0.968       .  S
C676        O693   1.292       .  A
C676        O685   1.274       .  A
C676        C724   1.453       .  S
O677       Ni696   1.867       .  S
O677        C683   1.245       .  A
O678       Ni696   1.899       .  S
O678        C680   1.254   1_554  A
Ni679       O682   1.861       .  S
Ni679       O684   1.939   1_556  S
C680        O690   1.309       .  A
C680        C890   1.531       .  S
O681       Ni697   1.906   1_556  S
O681        C687   1.275       .  A
O682        C687   1.257       .  A
C683        C741   1.474       .  S
O684        C686   1.272       .  A
O685       Ni696   1.867       .  S
C686        O692   1.262       .  A
C686        C710   1.487       .  S
H688        O689   0.966       .  S
O689       Ni697   1.916       .  S
O689       Ni691   1.891   1_554  S
O689       Ni696   1.898       .  S
O690       Ni691   2.037       .  S
Ni691       O695   2.018   1_556  S
Ni691       O693   1.961   1_556  S
O692       Ni697   1.901       .  S
C694        O695   1.304   1_556  A
C699        H700   1.111       .  S
C699        C705   1.531       .  S
C699        C996   1.541   1_545  S
C699        C995   1.521   1_545  S
C701        H702   1.112       .  S
C701        C999   1.520   1_545  S
C701        C998   1.530   1_645  S
C701        C708   1.530       .  S
C703        C991   1.522       .  S
C703        C706   1.363       .  D
C704        C991   1.543       .  S
C704        C707   1.374       .  D
C704        C755   1.476       .  S
C705        C708   1.374       .  D
C705        C769   1.477   1_655  S
C706        C993   1.528       .  S
C706        C738   1.464   1_655  S
C707        C993   1.517       .  S
C707        C727   1.474       .  S
C709        C710   1.410       .  A
C710        C711   1.413       .  A
C711        C712   1.400       .  A
C711        N718   1.432       .  S
C712        C713   1.406       .  A
C712        H717   1.078       .  S
C714        N715   1.438   1_455  S
N715        H719   1.046       .  S
N715        H720   1.046       .  S
N718        H721   1.045       .  S
N718        H722   1.044       .  S
C723        C724   1.403       .  A
C723        C728   1.403       .  A
C723        H730   1.084       .  S
C724        C725   1.405       .  A
C725       C1018   1.401       .  A
C725       N1024   1.437       .  S
C726       C1017   1.402   1_545  A
C726       C1019   1.404   1_545  A
C726        H731   1.084       .  S
C727       C1018   1.403       .  A
C727        C728   1.407       .  A
C728        N729   1.429       .  S
N729        H733   1.046       .  S
N729        H734   1.045       .  S
N732       C1017   1.438   1_545  S
N732       H1027   1.046       .  S
N732        H736   1.046       .  S
H735       N1024   1.046       .  S
C737        C742   1.389       .  A
C737       H1036   1.084       .  S
C738        C739   1.414       .  A
C739        N746   1.436   1_455  S
C740        C741   1.400       .  A
C740        H745   1.084       .  S
C741        C742   1.421       .  A
C742        N743   1.434       .  S
N743       H1039   1.046       .  S
N743        H748   1.046       .  S
H744       C1029   1.082   1_545  S
N746        H749   1.042       .  S
N746        H750   1.046       .  S
H747       N1035   1.046       .  S
C751        C752   1.410       .  A
C751        C756   1.407       .  A
C751        H758   1.083       .  S
C752        C753   1.414       .  A
C753        C754   1.397       .  A
C753        N760   1.433       .  S
C754        C755   1.397       .  A
C754        H759   1.082       .  S
C755        C756   1.410       .  A
C756        N757   1.432       .  S
N757        H761   1.046       .  S
N757        H762   1.043       .  S
N760        H763   1.046       .  S
N760        H764   1.045       .  S
C765        C770   1.393       .  A
C765        H772   1.085       .  S
C766        C767   1.407       .  A
C767        C768   1.410       .  A
C767        N774   1.437       .  S
C768        H773   1.083       .  S
C769        C770   1.402   1_455  A
C770        N771   1.432       .  S
N771        H775   1.046       .  S
N771        H776   1.046       .  S
N774        H777   1.046       .  S
N774        H778   1.046       .  S
C779        H786   1.082       .  S
C780        C781   1.406       .  A
C781        C782   1.395       .  A
C781       N1080   1.431       .  S
C782        C783   1.403       .  A
C782        H787   1.084       .  S
C783        C784   1.417       .  A
C784        N785   1.433       .  S
N785        H790   1.044       .  S
N788       C1073   1.431   1_545  S
N788        H791   1.046       .  S
N788        H792   1.045       .  S
C793        C794   1.402       .  A
C793        C798   1.393       .  A
C793        H800   1.084       .  S
C794        C795   1.408       .  A
C795        C796   1.393       .  A
C795        N802   1.440   1_655  S
C796        C797   1.404       .  A
C797        C798   1.414       .  A
C798       N1091   1.430   1_545  S
N799       C1090   1.430       .  S
N799        H803   1.041       .  S
N799        H804   1.042       .  S
N802        H805   1.046       .  S
C807        C808   1.403       .  A
C807        C812   1.410       .  A
C807       H1106   1.084   1_545  S
C808        C809   1.413       .  A
C809        C810   1.405       .  A
C809        N816   1.435       .  S
C810        C811   1.402       .  A
C810        H815   1.084       .  S
C811        C812   1.414       .  A
C812       N1105   1.437   1_545  S
N813       C1104   1.438       .  S
N813        H817   1.046       .  S
N813       H1110   1.045       .  S
H814       C1099   1.084       .  S
N816        H819   1.041       .  S
N816        H820   1.046       .  S
H818       N1105   1.045   1_545  S
C821        C822   1.395       .  A
C821        C826   1.403       .  A
C821        H828   1.084       .  S
C822        C823   1.413       .  A
C823        C824   1.396       .  A
C824        C825   1.403       .  A
C825        C826   1.417       .  A
C826        N827   1.427       .  S
N827        H831   1.046       .  S
N827        H832   1.045       .  S
N830        H834   1.045       .  S
C835        C836   1.404       .  A
C835        C840   1.415       .  A
C835        H842   1.083       .  S
C836        C837   1.397       .  A
C837        C838   1.380       .  A
C837        N844   1.425   1_545  S
C838        C839   1.400       .  A
C838        H843   1.084       .  S
C839        C840   1.415       .  A
C840        N841   1.437       .  S
N841        H845   1.046   1_655  S
N841        H846   1.045   1_655  S
N844       H1139   1.046       .  S
N844       H1140   1.046       .  S
H847       N1136   1.046       .  S
H848       N1136   1.046       .  S
C849        C850   1.400   1_565  A
C849        C854   1.404   1_565  A
C849       H1148   1.079       .  S
C850        C851   1.419       .  A
C851        C852   1.405       .  A
C851        N858   1.424       .  S
C852        C853   1.390       .  A
C852        H857   1.084       .  S
C853        C854   1.412       .  A
C854        N855   1.439   1_545  S
N855       H1151   1.046       .  S
N855        H860   1.046       .  S
H856       C1141   1.081       .  S
N858        H861   1.045       .  S
N858        H862   1.044       .  S
H859       N1147   1.046       .  S
C863        C864   1.411       .  A
C863        C868   1.406       .  A
C863        H870   1.084       .  S
C864        C865   1.404       .  A
C865        C866   1.398       .  A
C865        N872   1.433       .  S
C866        C867   1.399       .  A
C866        H871   1.073       .  S
C867        C868   1.410       .  A
N869        H873   1.043       .  S
N869        H874   1.045       .  S
N872        H875   1.046       .  S
N872        H876   1.045       .  S
O877       Ni883   1.875       .  S
O877        C898   1.252       .  A
O878       Ni901   2.005       .  S
O878        C887   1.315       .  A
O879       Ni883   1.865       .  S
O879       Ni901   1.875       .  S
O879       Ni895   1.912       .  S
O879        H902   0.966       .  S
C880        O897   1.264       .  A
C880        O889   1.254       .  A
O881       Ni900   1.846       .  S
O881        C887   1.248       .  A
O882       Ni900   1.919       .  S
O882        C884   1.272       .  A
Ni883       O886   1.876       .  S
Ni883       O888   1.865       .  S
C884        O894   1.270       .  A
C884       C1156   1.481       .  S
O885       Ni901   1.979       .  S
O885        C891   1.300       .  A
O886        C891   1.276       .  A
C887        C986   1.495       .  S
O888        C890   1.254       .  A
O889       Ni900   1.890       .  S
C890        O896   1.323       .  A
C891       C1145   1.475       .  S
H892        O893   0.968       .  S
O893       Ni901   1.963       .  S
O893       Ni895   1.914       .  S
O893       Ni900   1.938       .  S
O894       Ni895   1.931       .  S
Ni895       O899   1.926       .  S
Ni895       O897   1.879       .  S
O896       Ni901   2.067       .  S
C898        O899   1.256       .  A
C898       C1131   1.473       .  S
O903       Ni909   1.889       .  S
O903        C924   1.253       .  A
O904       Ni927   2.026       .  S
O904        C913   1.325       .  A
O905       Ni909   1.888       .  S
O905       Ni927   1.892       .  S
O905       Ni921   1.906       .  S
O905        H928   0.966       .  S
C906        O923   1.259       .  A
C906        O915   1.265       .  A
O907       Ni926   1.886       .  S
O907        C913   1.257       .  A
O908       Ni926   1.907       .  S
O908        C910   1.265       .  A
Ni909       O912   1.887       .  S
Ni909       O914   1.871       .  S
C910        O920   1.274       .  A
C910       C1103   1.490       .  S
O911       Ni927   1.963       .  S
O911        C917   1.295       .  A
O912        C917   1.276       .  A
C913        C960   1.526       .  S
O914        C916   1.254       .  A
O915       Ni926   1.918       .  S
C916        O922   1.331       .  A
C917       C1114   1.466       .  S
H918        O919   0.965       .  S
O919       Ni927   1.939       .  S
O919       Ni921   1.909       .  S
O919       Ni926   1.944       .  S
O920       Ni921   1.957       .  S
Ni921       O925   1.897       .  S
Ni921       O923   1.872       .  S
O922       Ni927   2.078       .  S
C924        O925   1.255       .  A
C924       C1086   1.456       .  S
C929        H930   1.112       .  S
C931        H932   1.111       .  S
C933        C936   1.374       .  D
C933       C1128   1.470       .  S
C934        C937   1.375       .  D
C934       C1142   1.486       .  S
C935        C938   1.371       .  D
C935       C1159   1.485       .  S
C936       C1089   1.475       .  S
C937       C1100   1.488       .  S
C938       C1117   1.491       .  S
O939       Ni945   1.889       .  S
O939        C960   1.258       .  A
O940       Ni963   1.905       .  S
O940        C949   1.262       .  A
O941       Ni945   1.939       .  S
O941       Ni963   1.915       .  S
O941       Ni957   1.942       .  S
O941        H964   0.967       .  S
C942        O959   1.297       .  A
C942        O951   1.276       .  A
C942       C1058   1.465       .  S
O943       Ni962   1.889       .  S
O943        C949   1.253       .  A
O944       Ni962   1.883       .  S
O944        C946   1.257       .  A
Ni945       O948   1.915       .  S
Ni945       O950   1.894       .  S
C946        O956   1.331       .  A
O947       Ni963   1.881       .  S
O947        C953   1.261       .  A
O948        C953   1.265       .  A
C949       C1075   1.463       .  S
O950        C952   1.265       .  A
O951       Ni962   1.877       .  S
C952        O958   1.276       .  A
C952       C1044   1.490       .  S
H954        O955   0.965       .  S
O955       Ni963   1.895       .  S
O955       Ni957   1.884       .  S
O955       Ni962   1.872       .  S
O956       Ni957   2.075       .  S
Ni957       O961   2.025       .  S
Ni957       O959   1.970       .  S
O958       Ni963   1.960       .  S
C960        O961   1.324       .  A
O965       Ni971   1.859       .  S
O965        C986   1.251       .  A
O966       Ni989   1.937       .  S
O966        C975   1.263       .  A
O967       Ni971   1.947       .  S
O967       Ni989   1.913   1_556  S
O967       Ni983   1.967       .  S
O967        H990   0.968       .  S
C968        O985   1.293       .  A
C968        O977   1.274       .  A
C968       C1016   1.453       .  S
O969       Ni988   1.870       .  S
O969        C975   1.246       .  A
O970       Ni988   1.898       .  S
O970        C972   1.253   1_554  A
Ni971       O974   1.863       .  S
Ni971       O976   1.937   1_556  S
C972        O982   1.310       .  A
O973       Ni989   1.899   1_556  S
O973        C979   1.273       .  A
O974        C979   1.258       .  A
C975       C1033   1.476       .  S
O976        C978   1.270       .  A
O977       Ni988   1.868       .  S
C978        O984   1.262       .  A
C978       C1002   1.488       .  S
H980        O981   0.965       .  S
O981       Ni989   1.916       .  S
O981       Ni983   1.891   1_554  S
O981       Ni988   1.898       .  S
O982       Ni983   2.038       .  S
Ni983       O987   2.022   1_556  S
Ni983       O985   1.963   1_556  S
O984       Ni989   1.898       .  S
C986        O987   1.305   1_556  A
C991        H992   1.112       .  S
C991        C997   1.529       .  S
C993        H994   1.112       .  S
C993       C1000   1.534       .  S
C995        C998   1.364   1_655  D
C996        C999   1.374       .  D
C996       C1047   1.478       .  S
C997       C1000   1.374       .  D
C997       C1061   1.479   1_655  S
C998       C1030   1.462       .  S
C999       C1019   1.474       .  S
C1001      C1002   1.411       .  A
C1002      C1003   1.413       .  A
C1003      C1004   1.397       .  A
C1003      N1010   1.431       .  S
C1004      C1005   1.406       .  A
C1004      H1009   1.081       .  S
C1006      N1007   1.438   1_455  S
N1007      H1011   1.045       .  S
N1007      H1012   1.045       .  S
N1010      H1013   1.044       .  S
N1010      H1014   1.045       .  S
C1015      C1016   1.403       .  A
C1015      C1020   1.402       .  A
C1015      H1022   1.084       .  S
C1016      C1017   1.406       .  A
C1018      H1023   1.084       .  S
C1019      C1020   1.404       .  A
C1020      N1021   1.429       .  S
N1021      H1025   1.045       .  S
N1021      H1026   1.045       .  S
N1024      H1028   1.046       .  S
C1029      C1034   1.388       .  A
C1030      C1031   1.414       .  A
C1031      N1038   1.435   1_455  S
C1032      C1033   1.402       .  A
C1032      H1037   1.084       .  S
C1033      C1034   1.420       .  A
C1034      N1035   1.434   1_565  S
N1035      H1040   1.046       .  S
N1038      H1041   1.041       .  S
N1038      H1042   1.046       .  S
C1043      C1044   1.409       .  A
C1043      C1048   1.406       .  A
C1043      H1050   1.083       .  S
C1044      C1045   1.415       .  A
C1045      C1046   1.398       .  A
C1045      N1052   1.434       .  S
C1046      C1047   1.399       .  A
C1046      H1051   1.082       .  S
C1047      C1048   1.408       .  A
C1048      N1049   1.432   1_565  S
N1049      H1053   1.046       .  S
N1049      H1054   1.043       .  S
N1052      H1055   1.046       .  S
N1052      H1056   1.046       .  S
C1057      C1062   1.391       .  A
C1057      H1064   1.085       .  S
C1058      C1059   1.410       .  A
C1059      C1060   1.413       .  A
C1059      N1066   1.437       .  S
C1060      H1065   1.083       .  S
C1061      C1062   1.401   1_455  A
C1062      N1063   1.431       .  S
N1063      H1067   1.046       .  S
N1063      H1068   1.046       .  S
N1066      H1069   1.045       .  S
N1066      H1070   1.046       .  S
C1071      H1078   1.081       .  S
C1072      C1073   1.405       .  A
C1073      C1074   1.393       .  A
C1074      C1075   1.403       .  A
C1074      H1079   1.084       .  S
C1075      C1076   1.417       .  A
C1076      N1077   1.434       .  S
N1077      H1082   1.044       .  S
N1080      H1083   1.046       .  S
N1080      H1084   1.045       .  S
C1085      C1086   1.401       .  A
C1085      C1090   1.392       .  A
C1085      H1092   1.084       .  S
C1086      C1087   1.404       .  A
C1087      C1088   1.389       .  A
C1087      N1094   1.440   1_655  S
C1088      C1089   1.407       .  A
C1089      C1090   1.414       .  A
N1091      H1095   1.042   1_565  S
N1091      H1096   1.041       .  S
N1094      H1097   1.046   1_455  S
C1099      C1100   1.403       .  A
C1099      C1104   1.409       .  A
C1100      C1101   1.412       .  A
C1101      C1102   1.410       .  A
C1101      N1108   1.436       .  S
C1102      C1103   1.405       .  A
C1102      H1107   1.084       .  S
C1103      C1104   1.414       .  A
N1105      H1109   1.046       .  S
N1108      H1111   1.042       .  S
N1108      H1112   1.046       .  S
C1113      C1114   1.394       .  A
C1113      C1118   1.403       .  A
C1113      H1120   1.084       .  S
C1114      C1115   1.415       .  A
C1115      C1116   1.398       .  A
C1116      C1117   1.403       .  A
C1117      C1118   1.416       .  A
C1118      N1119   1.427       .  S
N1119      H1123   1.046       .  S
N1119      H1124   1.045       .  S
N1122      H1126   1.044       .  S
C1127      C1128   1.404       .  A
C1127      C1132   1.414       .  A
C1127      H1134   1.083       .  S
C1128      C1129   1.397       .  A
C1129      C1130   1.378       .  A
C1129      N1136   1.424       .  S
C1130      C1131   1.400       .  A
C1130      H1135   1.084       .  S
C1131      C1132   1.415       .  A
C1132      N1133   1.437       .  S
N1133      H1137   1.046   1_655  S
N1133      H1138   1.045   1_655  S
C1141      C1142   1.395       .  A
C1141      C1146   1.403       .  A
C1142      C1143   1.416       .  A
C1143      C1144   1.407       .  A
C1143      N1150   1.425       .  S
C1144      C1145   1.394       .  A
C1144      H1149   1.084       .  S
C1145      C1146   1.418       .  A
C1146      N1147   1.439       .  S
N1147      H1152   1.046       .  S
N1150      H1153   1.045       .  S
N1150      H1154   1.044       .  S
C1155      C1156   1.409       .  A
C1155      C1160   1.402       .  A
C1155      H1162   1.084       .  S
C1156      C1157   1.406       .  A
C1157      C1158   1.402       .  A
C1157      N1164   1.433       .  S
C1158      C1159   1.401       .  A
C1158      H1163   1.075       .  S
C1159      C1160   1.408       .  A
N1161      H1165   1.042       .  S
N1161      H1166   1.045       .  S
N1164      H1167   1.046       .  S
N1164      H1168   1.045       .  S
