geometry optimzed in LAMMPS
_audit_creation_date              2020-11-30 
_audit_creation_method            'lammps2cif' 
_symmetry_space_group_name_H-M    'P1' 
_symmetry_Int_Tables_number       1 
_symmetry_cell_setting            triclinic 
loop_ 
_symmetry_equiv_pos_as_xyz 
  x,y,z 
_cell_length_a                    25.78270469 
_cell_length_b                    43.288022056156 
_cell_length_c                    42.820919964052166 
_cell_angle_alpha                 91.03806495359372 
_cell_angle_beta                  90.0758038141096 
_cell_angle_gamma                 89.59057499216485 
loop_ 
_atom_site_label 
_atom_site_type_symbol 
_atom_site_fract_x 
_atom_site_fract_y 
_atom_site_fract_z 
_atom_site_charge 
O1          O  0.75564217  0.32195518  0.19251885    -0.86200
O2          O  0.72278538  0.37166852  0.22657267    -0.83300
C3          C  0.69141709  0.38978690  0.24002164     0.97300
O4          O  0.65136641  0.37999834  0.25363650    -0.83300
O5          O  0.58405697  0.35655369  0.20949957    -0.85900
C6          C  0.56660272  0.33853889  0.18875510     1.01800
O7          O  0.58215285  0.31092507  0.18707643    -0.78700
O8          O  0.68195568  0.31897438  0.16740578    -0.78900
C9          C  0.72929674  0.32621293  0.16795132     1.01700
O10         O  0.74469431  0.28460772  0.24813359    -0.86200
O11         O  0.72002762  0.33700458  0.28239465    -0.83300
C12         C  0.68258353  0.33225563  0.30067169     0.97300
O13         O  0.63798278  0.32599989  0.29034238    -0.83300
O14         O  0.56579401  0.30243441  0.24823627    -0.85900
C15         C  0.57463015  0.27372746  0.24352114     1.01700
O16         O  0.61528826  0.26522831  0.22906911    -0.78700
O17         O  0.71438800  0.26739731  0.20354148    -0.78900
C18         C  0.74194823  0.26361483  0.22752879     1.01700
Cr19       Cr  0.73070213  0.32798252  0.23690490     1.93700
Cr20       Cr  0.61369081  0.33963569  0.24880906     1.93200
Cr21       Cr  0.64983075  0.29265229  0.19902877     1.39100
O22         O  0.66468760  0.32006328  0.22868775    -1.24000
O23         O  0.24057944  0.31554688  0.07888108    -0.86200
O24         O  0.27950265  0.36488970  0.04905262    -0.83300
C25         C  0.31180776  0.38254453  0.03670780     0.97300
O26         O  0.35081969  0.37201847  0.02207036    -0.83300
O27         O  0.41417070  0.34681649  0.06728847    -0.85900
C28         C  0.42593839  0.32899070  0.08926997     1.01800
O29         O  0.41439436  0.30094260  0.08693509    -0.78700
O30         O  0.31277922  0.30995354  0.10505726    -0.78900
C31         C  0.26556019  0.31759646  0.10422188     1.01700
O32         O  0.25293764  0.27880582  0.02168845    -0.86200
O33         O  0.28193154  0.33150595  0.99135062    -0.83300
C34         C  0.31899676  0.32640377  0.47265670     0.97300
O35         O  0.36359071  0.31897394  0.98268891    -0.83300
O36         O  0.43451219  0.29333261  0.02532767    -0.85900
C37         C  0.42561343  0.26469232  0.02902932     1.01700
O38         O  0.38392819  0.25649093  0.04196637    -0.78700
O39         O  0.28323037  0.25995705  0.06518718    -0.78900
C40         C  0.25808099  0.25667398  0.04017053     1.01700
Cr41       Cr  0.26888685  0.32174800  0.03571976     1.93700
Cr42       Cr  0.38700574  0.33107937  0.02581160     1.93200
Cr43       Cr  0.34733813  0.28396147  0.07256333     1.39100
O44         O  0.33443626  0.31199737  0.04407021    -1.24000
O45         O  0.27023194  0.37770694  0.33244735    -0.86200
O46         O  0.23153558  0.32801696  0.30075328    -0.83300
C47         C  0.19733112  0.31026427  0.28953442     0.97300
O48         O  0.15886228  0.32087656  0.27456137    -0.83300
O49         O  0.09286375  0.35030993  0.31631747    -0.85900
C50         C  0.07997661  0.36902014  0.33792550     1.01800
O51         O  0.09724712  0.39593585  0.33815643    -0.78700
O52         O  0.19667471  0.38174390  0.35722992    -0.78900
C53         C  0.24341144  0.37287022  0.35653295     1.01700
O54         O  0.26165832  0.41392833  0.27591969    -0.86200
O55         O  0.23375930  0.35940782  0.24386329    -0.83300
C56         C  0.19744196  0.36326538  0.22455819     0.97300
O57         O  0.15339633  0.37289594  0.23361190    -0.83300
O58         O  0.08321965  0.40289481  0.27467202    -0.85900
C59         C  0.09293388  0.43131532  0.28052205     1.05700
O60         O  0.13348540  0.43866372  0.29565131    -0.78700
O61         O  0.23289282  0.43184715  0.32061999    -0.78900
C62         C  0.25933461  0.43539749  0.29630343     1.01700
Cr63       Cr  0.24420746  0.37093059  0.28852312     1.93700
Cr64       Cr  0.12611888  0.36341208  0.27626907     1.93200
Cr65       Cr  0.16647871  0.40982718  0.32558043     1.39100
O66         O  0.17866569  0.38157977  0.29606517    -1.24000
O67         O  0.75536435  0.34686094  0.44740245    -0.86200
O68         O  0.78914683  0.32354219  0.50295192    -0.83300
C69         C  0.82790994  0.30698929  0.49558368     0.97300
O70         O  0.86955345  0.31907739  0.48672507    -0.83300
O71         O  0.93303418  0.36229607  0.46031015    -0.85900
C72         C  0.92230607  0.36258172  0.43130383     1.01800
O73         O  0.87850730  0.37173225  0.42217546    -0.78700
O74         O  0.77594235  0.38944517  0.42386578    -0.78900
C75         C  0.75484328  0.36312430  0.42335069     1.01700
O76         O  0.73435498  0.40594243  0.47827370    -0.86200
O77         O  0.77824640  0.38320587  0.03130657    -0.83300
C78         C  0.80808463  0.37004687  0.05014716     0.97300
O79         O  0.85066045  0.35851638  0.04025904    -0.83300
O80         O  0.91006415  0.40447954  0.01119262    -0.85900
C81         C  0.92290261  0.42423474  0.49122988     1.01700
O82         O  0.90545159  0.42221716  0.46362681    -0.78700
O83         O  0.80267768  0.43476965  0.47116868    -0.78900
C84         C  0.75585104  0.43210053  0.47865053     1.01700
Cr85       Cr  0.76886189  0.36569572  0.48909339     1.93700
Cr86       Cr  0.88690181  0.36226066  0.49829330     1.93200
Cr87       Cr  0.83989251  0.40262827  0.44742167     1.39100
O88         O  0.83207725  0.37669800  0.47828357    -1.24000
O89         O  0.17511386  0.06269282  0.11141243    -0.86200
O90         O  0.08093917  0.05311968  0.08384192    -0.83300
C91         C  0.06469454  0.08021137  0.07953814     0.97300
O92         O  0.08352580  0.09646646  0.05840195    -0.83300
O93         O  0.16030922  0.11947991  0.02167026    -0.85900
C94         C  0.19457098  0.13110131  0.03949730     1.01800
O95         O  0.21995918  0.11452972  0.05811485    -0.78700
O96         O  0.25267723  0.06475504  0.09221613    -0.78900
C97         C  0.22216416  0.06962693  0.11467933     1.01700
O98         O  0.21625413  0.01017738  0.07644837    -0.86200
O99         O  0.12217309  0.00524645  0.04567567    -0.83300
C100        C  0.08464480  0.01215705  0.02806399     0.97300
O101        O  0.07840617  0.04014848  0.01979425    -0.83300
O102        O  0.16250309  0.06417820  0.98429449    -0.85900
C103        C  0.20796519  0.07422132  0.47995882     1.01700
O104        O  0.23656275  0.08034098  0.00298173    -0.78700
O105        O  0.25666399  0.02863241  0.03594717    -0.78900
C106        C  0.24922430  0.00713174  0.05475983     1.01700
Cr107      Cr  0.15037992  0.03477772  0.07722429     1.93700
Cr108      Cr  0.12444090  0.07834664  0.02299939     1.93200
Cr109      Cr  0.23632466  0.07116315  0.04738349     1.39100
O110        O  0.17016163  0.06108314  0.04866042    -1.24000
O111        O  0.82486363  0.06609959  0.16822178    -0.86200
O112        O  0.92511652  0.05438314  0.18918754    -0.83300
C113        C  0.93432464  0.08186894  0.18322095     0.97300
O114        O  0.92198198  0.10228364  0.20335948    -0.83300
O115        O  0.86084713  0.13102169  0.24889948    -0.85900
C116        C  0.81906334  0.14060480  0.23696531     1.01800
O117        O  0.78568147  0.12235132  0.22606970    -0.78700
O118        O  0.75163261  0.07224452  0.19351361    -0.78900
C119        C  0.77820107  0.07516318  0.16881038     1.01700
O120        O  0.78986137  0.01714496  0.20623210    -0.86200
O121        O  0.88954244  0.01386055  0.23324765    -0.83300
C122        C  0.93131385  0.02271159  0.24629004     0.97300
O123        O  0.94201012  0.05146216  0.24793985    -0.83300
O124        O  0.87456269  0.08074693  0.28968244    -0.85900
C125        C  0.82953085  0.08581111  0.30052744     1.01700
O126        O  0.79070136  0.08872210  0.28270464    -0.78700
O127        O  0.76312433  0.03623238  0.25076994    -0.78900
C128        C  0.76424687  0.01449116  0.23097295     1.01700
Cr129      Cr  0.85597038  0.03996310  0.20119292     1.93700
Cr130      Cr  0.89625136  0.08978018  0.24604163     1.93200
Cr131      Cr  0.77776850  0.07898285  0.23773359     1.39100
O132        O  0.84319348  0.06952967  0.22913535    -1.24000
O133        O  0.33659999  0.13003376  0.36271981    -0.86200
O134        O  0.43182031  0.13911530  0.33667101    -0.83300
C135        C  0.44776097  0.11186619  0.33227679     0.97300
O136        O  0.42883701  0.09498729  0.31100517    -0.83300
O137        O  0.35223226  0.07084965  0.27393620    -0.85900
C138        C  0.31978389  0.05997548  0.29291196     1.01800
O139        O  0.29161180  0.07753682  0.30959113    -0.78700
O140        O  0.25880307  0.12798704  0.34316545    -0.78900
C141        C  0.28941748  0.12323218  0.36545434     1.01700
O142        O  0.29660395  0.18185718  0.32837317    -0.86200
O143        O  0.39089621  0.18561479  0.29812484    -0.83300
C144        C  0.42775465  0.17774301  0.28011090     0.97300
O145        O  0.43422047  0.14944884  0.27250964    -0.83300
O146        O  0.35144498  0.12544505  0.23702830    -0.85900
C147        C  0.30610566  0.11586642  0.23148106     1.01700
O148        O  0.27642334  0.10936076  0.25368070    -0.78700
O149        O  0.25580649  0.16328273  0.28741538    -0.78900
C150        C  0.26360604  0.18511662  0.30680936     1.01700
Cr151      Cr  0.36218117  0.15717174  0.32936308     1.93700
Cr152      Cr  0.38827727  0.11185047  0.27546022     1.93200
Cr153      Cr  0.27577667  0.12044581  0.29842727     1.39100
O154        O  0.34229032  0.13016805  0.30056414    -1.24000
O155        O  0.74185341  0.14530027  0.42645089    -0.86200
O156        O  0.64171307  0.12833113  0.42092227    -0.83300
C157        C  0.59893274  0.11613625  0.42647430     0.97300
O158        O  0.58344086  0.11389622  0.45457066    -0.83300
O159        O  0.64681679  0.07041087  0.48150678    -0.85900
C160        C  0.68750956  0.05837402  0.49226310     1.01800
O161        O  0.72459094  0.07503062  0.50138780    -0.78700
O162        O  0.76039541  0.10116921  0.44798945    -0.78900
C163        C  0.76144107  0.11837603  0.42461699     1.01700
O164        O  0.71061287  0.18818993  0.47591820    -0.86200
O165        O  0.60777807  0.17565117  0.46470425    -0.83300
C166        C  0.58663423  0.17490694  0.49140654     0.97300
O167        O  0.59798381  0.15328819  0.00966614    -0.83300
O168        O  0.65767108  0.10718184  0.03766586    -0.85900
C169        C  0.69846986  0.11814491  0.05028429     1.01700
O170        O  0.73104551  0.13210498  0.03367446    -0.78700
O171        O  0.77869114  0.15838723  0.48251324    -0.78900
C172        C  0.75769760  0.18487128  0.48275119     1.01700
Cr173      Cr  0.67583081  0.15743524  0.44928118     1.93700
Cr174      Cr  0.62550649  0.11263966  0.49468919     1.93200
Cr175      Cr  0.74419309  0.11768627  0.49039108     1.39100
O176        O  0.68157573  0.12932365  0.47836953    -1.24000
C177        C  0.53996345  0.11178579  0.34510108    -0.10000
C178        C  0.49034021  0.10132299  0.35207657     0.06200
C179        C  0.48006863  0.08995953  0.38193435    -0.03800
C180        C  0.51739651  0.09286393  0.40554089    -0.08200
C181        C  0.56544206  0.10680515  0.39965689     0.05300
C182        C  0.57787817  0.11425645  0.36827600    -0.03300
Br183      Br  0.64329440  0.13059221  0.35472352    -0.03000
H184        H  0.54795220  0.12051155  0.32203382     0.09200
H185        H  0.50752793  0.08583595  0.42892311     0.07200
Br186      Br  0.41385808  0.07292778  0.39201332    -0.03400
C187        C  0.78016089  0.07370620  0.34845797    -0.10000
C188        C  0.82059973  0.09006212  0.33449298     0.06200
C189        C  0.84480808  0.11401790  0.35172784    -0.03800
C190        C  0.82597164  0.12261417  0.38142017    -0.08200
C191        C  0.78433304  0.10693756  0.39486015     0.05300
C192        C  0.76264665  0.08154005  0.37856102    -0.03300
Br193      Br  0.70598658  0.05849528  0.39525391    -0.03000
H194        H  0.76087076  0.05542037  0.33542389     0.09200
H195        H  0.84333486  0.14192844  0.39381184     0.07200
Br196      Br  0.90038842  0.13758894  0.33461971    -0.03400
C197        C  0.76086906  0.12134828  0.09471048    -0.10000
C198        C  0.71249294  0.11114115  0.08345222     0.06200
C199        C  0.68335431  0.09123287  0.10267001    -0.03800
C200        C  0.70463693  0.08045817  0.13078988    -0.08200
C201        C  0.75471196  0.08889502  0.14043819     0.05300
C202        C  0.78185729  0.11056017  0.12262274    -0.03300
Br203      Br  0.84697792  0.12753204  0.13567982    -0.03000
H204        H  0.78375749  0.13721190  0.08122203     0.09200
H205        H  0.68255184  0.06452005  0.14467580     0.07200
Br206      Br  0.61525662  0.07673328  0.09201804    -0.03400
C207        C  0.23238219  0.10534224  0.19630806    -0.10000
C208        C  0.28633089  0.10916082  0.19958266     0.06200
C209        C  0.31858800  0.10115813  0.17412662    -0.03800
C210        C  0.29657689  0.08881457  0.14673713    -0.08200
C211        C  0.24274438  0.08338710  0.14419733     0.05300
C212        C  0.21059366  0.09198987  0.16958443    -0.03300
Br213      Br  0.13714789  0.08483965  0.17110612    -0.03000
H214        H  0.20667200  0.11132267  0.21550693     0.09200
H215        H  0.32223905  0.08258393  0.12762469     0.07200
Br216      Br  0.39285400  0.10405272  0.17573798    -0.03400
C217        C  0.27178663  0.10359238  0.44999081    -0.10000
C218        C  0.22878943  0.08353410  0.44915719     0.06200
C219        C  0.20716725  0.07563380  0.41990400    -0.03800
C220        C  0.22755921  0.08876990  0.39277415    -0.08200
C221        C  0.26945253  0.10962355  0.39430361     0.05300
C222        C  0.29167118  0.11677338  0.42338933    -0.03300
Br223      Br  0.34649587  0.14627788  0.42934421    -0.03000
H224        H  0.28977288  0.11024805  0.47182804     0.09200
H225        H  0.21083393  0.08248121  0.37033982     0.07200
Br226      Br  0.15197073  0.04643119  0.41535824    -0.03400
C227        C  0.99513051  0.11213631  0.14961190    -0.10000
C228        C  0.95886195  0.08824242  0.15275958     0.06200
C229        C  0.94988278  0.06803461  0.12679900    -0.03800
C230        C  0.97991106  0.07017157  0.10017635    -0.08200
C231        C  0.02110773  0.09068647  0.09899422     0.05300
C232        C  0.02675163  0.11327495  0.12284296    -0.03300
Br233      Br  0.08043086  0.14362683  0.12107233    -0.03000
H234        H  0.00185094  0.12821239  0.16883074     0.09200
H235        H  0.97519646  0.05296294  0.08166944     0.07200
Br236      Br  0.90184183  0.03416975  0.12597348    -0.03400
C237        C  0.74898576  0.47902626  0.51082057    -0.10000
C238        C  0.72730645  0.46012886  0.48751840     0.06200
C239        C  0.68482724  0.47083736  0.47010097    -0.03800
C240        C  0.67272721  0.00595397  0.47007191    -0.08200
C241        C  0.69370071  0.02473904  0.49388350     0.05300
C242        C  0.73240062  0.50944767  0.51493489    -0.03300
Br243      Br  0.76398810  0.53274758  0.54854576    -0.03000
H244        H  0.78070104  0.47044845  0.52496107     0.09200
H245        H  0.64679233  0.01570903  0.45288354     0.07200
Br246      Br  0.65158056  0.44538248  0.43905355    -0.03400
C247        C  0.83792876  0.25546382  0.47056476    -0.10000
C248        C  0.82257691  0.27332358  0.49662534     0.06200
C249        C  0.79426432  0.25947392  0.52075274    -0.03800
C250        C  0.77713521  0.22919179  0.51696545    -0.08200
C251        C  0.78803945  0.21246728  0.48951141     0.05300
C252        C  0.82018116  0.22522167  0.46664937    -0.03300
Br253      Br  0.83464933  0.20395442  0.92793953    -0.03000
H254        H  0.85971792  0.26589449  0.95192402     0.09200
H255        H  0.75265102  0.21928917  0.53469061     0.07200
Br256      Br  0.77595857  0.28117841  0.55872052    -0.03400
C257        C  0.00718527  0.43967989  0.01481779    -0.10000
C258        C  0.96181297  0.44841381  0.99920978     0.06200
C259        C  0.95642658  0.47942034  0.98992427    -0.03800
C260        C  0.00928376  0.99455735  0.99482868    -0.08200
C261        C  0.04107278  0.49247197  0.01304114     0.05300
C262        C  0.04683014  0.46088749  0.02128796    -0.03300
Br263      Br  0.10770748  0.44382846  0.04076654    -0.03000
H264        H  0.01252499  0.41581331  0.02133416     0.09200
H265        H  0.01118616  0.01642576  0.98300789     0.07200
Br266      Br  0.89536738  0.49385266  0.46882798    -0.03400
C267        C  0.28618644  0.47927339  0.26331050    -0.10000
C268        C  0.28535798  0.46540610  0.29268423     0.06200
C269        C  0.30075382  0.48293434  0.31934077    -0.03800
C270        C  0.31215685  0.51417764  0.31661462    -0.08200
C271        C  0.31314750  0.02649130  0.29531957     0.05300
C272        C  0.30776868  0.00699077  0.26879468    -0.03300
Br273      Br  0.31305180  0.02199060  0.22700572    -0.03000
H274        H  0.27389009  0.46633952  0.24274390     0.09200
H275        H  0.32199042  0.52761223  0.33737158     0.07200
Br276      Br  0.30615175  0.46597166  0.36046339    -0.03400
C277        C  0.21200564  0.22338330  0.27626007    -0.10000
C278        C  0.23586170  0.21512372  0.30449210     0.06200
C279        C  0.23730709  0.23723451  0.32921008    -0.03800
C280        C  0.22343210  0.26775773  0.32363851    -0.08200
C281        C  0.20360030  0.27672113  0.29469876     0.05300
C282        C  0.19443055  0.25372287  0.27155543    -0.03300
Br283      Br  0.16041771  0.26212347  0.23281377    -0.03000
H284        H  0.20852475  0.20652564  0.25738429     0.09200
H285        H  0.22883063  0.28478347  0.34211678     0.07200
Br286      Br  0.25619453  0.22777468  0.37151544    -0.03400
C287        C  0.00341381  0.44585251  0.26298117    -0.10000
C288        C  0.05372534  0.45551177  0.27125938     0.06200
C289        C  0.06338070  0.48774577  0.27196856    -0.03800
C290        C  0.02392218  0.50886274  0.26377868    -0.08200
C291        C  0.97374004  0.49908029  0.25508317     0.05300
C292        C  0.96382132  0.46687562  0.25537810    -0.03300
Br293      Br  0.89690852  0.44918886  0.24694899    -0.03000
H294        H  0.99408288  0.42147678  0.26299318     0.09200
H295        H  0.03206940  0.03352888  0.26042573     0.07200
Br296      Br  0.12952368  0.50495347  0.28318104    -0.03400
C297        C  0.99541102  0.34767243  0.35509315    -0.10000
C298        C  0.04324679  0.36101335  0.36286946     0.06200
C299        C  0.05185667  0.37123907  0.39402595    -0.03800
C300        C  0.01330055  0.36810412  0.41635776    -0.08200
C301        C  0.96408156  0.35724611  0.40819015     0.05300
C302        C  0.95529414  0.34659297  0.37720299    -0.03300
Br303      Br  0.88907779  0.33198904  0.36315223    -0.03000
H304        H  0.98780752  0.34038012  0.33119429     0.09200
H305        H  0.02053192  0.37702272  0.43977080     0.07200
Br306      Br  0.11294421  0.39271815  0.40782344    -0.03400
C307        C  0.17108832  0.18707827  0.03798825    -0.10000
C308        C  0.20898806  0.16361329  0.03628130     0.06200
C309        C  0.26127940  0.17149082  0.03152128    -0.03800
C310        C  0.27508188  0.20233408  0.02948497    -0.08200
C311        C  0.23804748  0.22585294  0.03313194     0.05300
C312        C  0.18555515  0.21825466  0.03717883    -0.03300
Br313      Br  0.13392009  0.24951909  0.04496418    -0.03000
H314        H  0.13080545  0.18120976  0.04169379     0.09200
H315        H  0.31567483  0.20809164  0.02689547     0.07200
Br316      Br  0.31627352  0.14140523  0.02866179    -0.03400
C317        C  0.29724438  0.42910024  0.06906927    -0.10000
C318        C  0.30273617  0.41585118  0.03922424     0.06200
C319        C  0.29420611  0.43394178  0.01269617    -0.03800
C320        C  0.27718345  0.46451222  0.01646025    -0.08200
C321        C  0.26858471  0.47725217  0.04641270     0.05300
C322        C  0.28104438  0.45969555  0.07289162    -0.03300
Br323      Br  0.27772006  0.47618328  0.11482700    -0.03000
H324        H  0.30467919  0.41535527  0.08952635     0.09200
H325        H  0.27772471  0.97997908  0.00075518     0.07200
Br326      Br  0.29976964  0.41713580  0.97106023    -0.03400
C327        C  0.50817135  0.19037004  0.02269510    -0.10000
C328        C  0.54617772  0.19840914  0.00079471     0.06200
C329        C  0.54404822  0.22851672  0.48845507    -0.03800
C330        C  0.50426490  0.24922224  0.99755354    -0.08200
C331        C  0.46576017  0.24106189  0.01917694     0.05300
C332        C  0.46868204  0.21110719  0.03201844    -0.03300
Br333      Br  0.42260922  0.19716582  0.06397936    -0.03000
H334        H  0.50908626  0.16758646  0.03281728     0.09200
H335        H  0.50387450  0.27214229  0.48774112     0.07200
Br336      Br  0.59610975  0.24381519  0.46077148    -0.03400
C337        C  0.22139752  0.35893223  0.13646603    -0.10000
C338        C  0.23977360  0.32829046  0.13332170     0.06200
C339        C  0.23861972  0.30910583  0.15936924    -0.03800
C340        C  0.22375820  0.32123354  0.18843375    -0.08200
C341        C  0.20671520  0.35196307  0.19212461     0.05300
C342        C  0.20447861  0.37079319  0.16565395    -0.03300
Br343      Br  0.18381635  0.41331978  0.16897973    -0.03000
H344        H  0.22237476  0.37402701  0.11655571     0.09200
H345        H  0.22672721  0.30666891  0.20861738     0.07200
Br346      Br  0.25584914  0.26593129  0.15613319    -0.03400
C347        C  0.31791749  0.36322760  0.39301641    -0.10000
C348        C  0.26660552  0.35693663  0.38371050     0.06200
C349        C  0.23803688  0.33522607  0.40070000    -0.03800
C350        C  0.25856591  0.32301271  0.42806914    -0.08200
C351        C  0.30782426  0.33154319  0.43913615     0.05300
C352        C  0.33868108  0.35071231  0.42050537    -0.03300
Br353      Br  0.40695715  0.36313953  0.43309672    -0.03000
H354        H  0.34106398  0.37912994  0.37973891     0.09200
H355        H  0.23467771  0.30779234  0.44171715     0.07200
Br356      Br  0.17111777  0.32064606  0.38763230    -0.03400
C357        C  0.76806844  0.21940032  0.25985682    -0.10000
C358        C  0.77007564  0.23428919  0.23109453     0.06200
C359        C  0.79392999  0.21923567  0.20528958    -0.03800
C360        C  0.81249049  0.18908529  0.20817144    -0.08200
C361        C  0.80773876  0.17366489  0.23639083     0.05300
C362        C  0.78610152  0.18907204  0.26255585    -0.03300
Br363      Br  0.77547361  0.16866376  0.30137136    -0.03000
H364        H  0.74934478  0.23065629  0.27977076     0.09200
H365        H  0.82923355  0.17722349  0.18795228     0.07200
Br366      Br  0.80208904  0.23859837  0.16560170    -0.03400
C367        C  0.68724714  0.44100413  0.21593923    -0.10000
C368        C  0.70361861  0.42268782  0.24072994     0.06200
C369        C  0.73778124  0.43491300  0.26337165    -0.03800
C370        C  0.75497773  0.46529055  0.26103129    -0.08200
C371        C  0.74061818  0.48313854  0.23545140     0.05300
C372        C  0.70606581  0.47098804  0.21291502    -0.03300
Br373      Br  0.68535129  0.99410621  0.17627724    -0.03000
H374        H  0.66184476  0.43143710  0.19810430     0.09200
H375        H  0.78260495  0.47420518  0.27796687     0.07200
Br376      Br  0.76632930  0.41007152  0.29591774    -0.03400
C377        C  0.54796750  0.21830356  0.24755931    -0.10000
C378        C  0.53622078  0.24973658  0.25336731     0.06200
C379        C  0.48763696  0.25695643  0.26733540    -0.03800
C380        C  0.45319546  0.23326741  0.27507468    -0.08200
C381        C  0.46506662  0.20185853  0.26934312     0.05300
C382        C  0.51350398  0.19463417  0.25523184    -0.03300
Br383      Br  0.53704811  0.15316719  0.24623834    -0.03000
H384        H  0.58461322  0.21183513  0.23689472     0.09200
H385        H  0.41660279  0.23965119  0.28586293     0.07200
Br386      Br  0.46439504  0.29836713  0.27673573    -0.03400
C387        C  0.72143354  0.31570448  0.35082580    -0.10000
C388        C  0.69124398  0.33700780  0.33435121     0.06200
C389        C  0.67722950  0.36527461  0.34888337    -0.03800
C390        C  0.69688263  0.37290024  0.37842723    -0.08200
C391        C  0.72889362  0.35221161  0.39448924     0.05300
C392        C  0.73922962  0.32278425  0.38106444    -0.03300
Br393      Br  0.78098146  0.29248975  0.40170709    -0.03000
H394        H  0.73261774  0.29398925  0.33975080     0.09200
H395        H  0.68812996  0.39541205  0.38859229     0.07200
Br396      Br  0.63447438  0.39524491  0.32845450    -0.03400
C397        C  0.71893606  0.35416319  0.11847033    -0.10000
C398        C  0.75267374  0.34002009  0.13966149     0.06200
C399        C  0.80644151  0.34007469  0.13309255    -0.03800
C400        C  0.82423877  0.35149968  0.10451866    -0.08200
C401        C  0.78980981  0.36425676  0.08258305     0.05300
C402        C  0.73665177  0.36689927  0.09081206    -0.03300
Br403      Br  0.68421001  0.38642462  0.06570036    -0.03000
H404        H  0.67786996  0.35526980  0.12336747     0.09200
H405        H  0.86517618  0.34964864  0.09911975     0.07200
Br406      Br  0.85762098  0.32392245  0.16112240    -0.03400
C407        C  0.47902119  0.32924617  0.17144154    -0.10000
C408        C  0.52330835  0.34708168  0.16833370     0.06200
C409        C  0.52973965  0.36466496  0.14127732    -0.03800
C410        C  0.49511599  0.36077627  0.11600677    -0.08200
C411        C  0.45434148  0.33937953  0.11772359     0.05300
C412        C  0.44501411  0.32500846  0.14666933    -0.03300
Br413      Br  0.38975809  0.29683141  0.15443521    -0.03000
H414        H  0.47354401  0.31598374  0.19242534     0.09200
H415        H  0.50230754  0.37269052  0.09443726     0.07200
Br416      Br  0.58671361  0.39244104  0.13747667    -0.03400
O417        O  0.75563812  0.32194524  0.69251620    -0.86200
O418        O  0.72279301  0.37165884  0.72657335    -0.83300
C419        C  0.69142965  0.38977854  0.74002451     0.97300
O420        O  0.65137847  0.37999287  0.75364063    -0.83300
O421        O  0.58405829  0.35655942  0.70950447    -0.85900
C422        C  0.56660139  0.33854859  0.68875726     1.01800
O423        O  0.58214654  0.31093393  0.68707510    -0.78700
O424        O  0.68194932  0.31897473  0.66740461    -0.78900
C425        C  0.72929265  0.32620730  0.66794945     1.01700
O426        O  0.74468210  0.28459622  0.74812887    -0.86200
O427        O  0.72003185  0.33699413  0.78239377    -0.83300
C428        C  0.68258806  0.33224919  0.80067225     0.97300
O429        O  0.63798559  0.32599507  0.79034402    -0.83300
O430        O  0.56578623  0.30243778  0.74823681    -0.85900
C431        C  0.57461553  0.27373088  0.74351628     1.01700
O432        O  0.61527110  0.26523055  0.72906279    -0.78700
O433        O  0.71436892  0.26739158  0.70353627    -0.78900
C434        C  0.74193036  0.26360520  0.72752245     1.01700
Cr435      Cr  0.73070073  0.32797251  0.73690318     1.93700
Cr436      Cr  0.61369243  0.33963490  0.74881162     1.93200
Cr437      Cr  0.64981900  0.29265344  0.69902547     1.39100
O438        O  0.66468352  0.32005995  0.72868704    -1.24000
O439        O  0.24059821  0.31554816  0.57888842    -0.86200
O440        O  0.27951102  0.36489147  0.54905396    -0.83300
C441        C  0.31181277  0.38254644  0.53670602     0.97300
O442        O  0.35082415  0.37202075  0.52206780    -0.83300
O443        O  0.41418426  0.34682128  0.56728356    -0.85900
C444        C  0.42595435  0.32899666  0.58926578     1.01800
O445        O  0.41441581  0.30094795  0.58693034    -0.78700
O446        O  0.31280332  0.30995843  0.60505980    -0.78900
C447        C  0.26558319  0.31759886  0.60422776     1.01700
O448        O  0.25294988  0.27880564  0.52169569    -0.86200
O449        O  0.28193023  0.33150581  0.49135335    -0.83300
C450        C  0.31900126  0.32640059  0.97265716     0.97300
O451        O  0.36358923  0.31897771  0.48268523    -0.83300
O452        O  0.43452139  0.29333563  0.52532149    -0.85900
C453        C  0.42562552  0.26469541  0.52902717     1.01700
O454        O  0.38394253  0.25649430  0.54196680    -0.78700
O455        O  0.28324998  0.25995966  0.56519380    -0.78900
C456        C  0.25809907  0.25667453  0.54017802     1.01700
Cr457      Cr  0.26889657  0.32174870  0.53572426     1.93700
Cr458      Cr  0.38701313  0.33108254  0.52580759     1.93200
Cr459      Cr  0.34735734  0.28396563  0.57256446     1.39100
O460        O  0.33444832  0.31200000  0.54407047    -1.24000
O461        O  0.27025090  0.37771120  0.83245412    -0.86200
O462        O  0.23155798  0.32802004  0.80076159    -0.83300
C463        C  0.19735253  0.31026720  0.78954411     0.97300
O464        O  0.15888266  0.32087886  0.77457172    -0.83300
O465        O  0.09288056  0.35031216  0.81632462    -0.85900
C466        C  0.07999267  0.36902150  0.83793321     1.01800
O467        O  0.09726663  0.39593642  0.83816757    -0.78700
O468        O  0.19669363  0.38174343  0.85723697    -0.78900
C469        C  0.24343035  0.37287043  0.85653850     1.01700
O470        O  0.26167349  0.41393168  0.77592750    -0.86200
O471        O  0.23378098  0.35940883  0.74387157    -0.83300
C472        C  0.19746364  0.36326478  0.72456638     0.97300
O473        O  0.15341792  0.37289565  0.73361970    -0.83300
O474        O  0.08324125  0.40289598  0.77467893    -0.85900
C475        C  0.09295376  0.43131628  0.78053078     1.05700
O476        O  0.13350267  0.43866522  0.79566228    -0.78700
O477        O  0.23291019  0.43184816  0.82062929    -0.78900
C478        C  0.25934903  0.43540019  0.79631197     1.01700
Cr479      Cr  0.24422698  0.37093355  0.78853091     1.93700
Cr480      Cr  0.12613895  0.36341352  0.77627709     1.93200
Cr481      Cr  0.16649707  0.40982794  0.82558986     1.39100
O482        O  0.17868460  0.38158150  0.79607350    -1.24000
O483        O  0.75537098  0.34686585  0.94740277    -0.86200
O484        O  0.78915315  0.32354581  0.00295237    -0.83300
C485        C  0.82791660  0.30699324  0.99558371     0.97300
O486        O  0.86955961  0.31908225  0.98672530    -0.83300
O487        O  0.93303706  0.36230368  0.96031085    -0.85900
C488        C  0.92230863  0.36259182  0.93130448     1.01800
O489        O  0.87851026  0.37174380  0.92217716    -0.78700
O490        O  0.77594433  0.38945216  0.92386834    -0.78900
C491        C  0.75484984  0.36312983  0.92335131     1.01700
O492        O  0.73435691  0.40594619  0.97827633    -0.86200
O493        O  0.77824204  0.38320161  0.53130573    -0.83300
C494        C  0.80808095  0.37004227  0.55014589     0.97300
O495        O  0.85065663  0.35851225  0.54025721    -0.83300
O496        O  0.91006311  0.40447413  0.51118943    -0.85900
C497        C  0.92290116  0.42424214  0.99123460     1.01700
O498        O  0.90545092  0.42222589  0.96363140    -0.78700
O499        O  0.80267796  0.43477525  0.97117533    -0.78900
C500        C  0.75585146  0.43210476  0.97865637     1.01700
Cr501      Cr  0.76886632  0.36569974  0.98909455     1.93700
Cr502      Cr  0.88690560  0.36226613  0.99829473     1.93200
Cr503      Cr  0.83989362  0.40263635  0.94742544     1.39100
O504        O  0.83208073  0.37670345  0.97828534    -1.24000
O505        O  0.17512878  0.06269743  0.61141322    -0.86200
O506        O  0.08094869  0.05312759  0.58384789    -0.83300
C507        C  0.06470691  0.08022001  0.57954491     0.97300
O508        O  0.08353950  0.09647430  0.55840880    -0.83300
O509        O  0.16032171  0.11948284  0.52167402    -0.85900
C510        C  0.19459148  0.13110125  0.53949747     1.01800
O511        O  0.21998182  0.11452786  0.55811208    -0.78700
O512        O  0.25269173  0.06475405  0.59221490    -0.78900
C513        C  0.22218052  0.06962885  0.61467868     1.01700
O514        O  0.21625701  0.01017849  0.57645147    -0.86200
O515        O  0.12217403  0.00525180  0.54568070    -0.83300
C516        C  0.08464739  0.01216191  0.52806766     0.97300
O517        O  0.07840712  0.04015434  0.51980058    -0.83300
O518        O  0.16249846  0.06418294  0.48429688    -0.85900
C519        C  0.20796979  0.07421829  0.97995903     1.01700
O520        O  0.23656777  0.08033616  0.50297933    -0.78700
O521        O  0.25666365  0.02862778  0.53594667    -0.78900
C522        C  0.24922515  0.00712967  0.55476233     1.01700
Cr523      Cr  0.15038672  0.03478232  0.57722792     1.93700
Cr524      Cr  0.12444659  0.07835171  0.52300438     1.93200
Cr525      Cr  0.23633488  0.07116015  0.54738178     1.39100
O526        O  0.17016933  0.06108557  0.54866256    -1.24000
O527        O  0.82487205  0.06610095  0.66821839    -0.86200
O528        O  0.92512508  0.05438581  0.68918715    -0.83300
C529        C  0.93433031  0.08187240  0.68322301     0.97300
O530        O  0.92198315  0.10228499  0.70336273    -0.83300
O531        O  0.86083833  0.13101660  0.74890142    -0.85900
C532        C  0.81905536  0.14059744  0.73696436     1.01800
O533        O  0.78567678  0.12234247  0.72606780    -0.78700
O534        O  0.75163748  0.07223670  0.69350820    -0.78900
C535        C  0.77820701  0.07515995  0.66880593     1.01700
O536        O  0.78987326  0.01714127  0.70622221    -0.86200
O537        O  0.88954879  0.01385851  0.73324097    -0.83300
C538        C  0.93131660  0.02271004  0.74628683     0.97300
O539        O  0.94201036  0.05146079  0.74794026    -0.83300
O540        O  0.87455683  0.08074062  0.78968280    -0.85900
C541        C  0.82952378  0.08580329  0.80052677     1.01700
O542        O  0.79069544  0.08871192  0.78270247    -0.78700
O543        O  0.76313295  0.03622125  0.75076240    -0.78900
C544        C  0.76426018  0.01448235  0.73096280     1.01700
Cr545      Cr  0.85597902  0.03996245  0.70118777     1.93700
Cr546      Cr  0.89624874  0.08977722  0.74604297     1.93200
Cr547      Cr  0.77776892  0.07897370  0.73772974     1.39100
O548        O  0.84319578  0.06952536  0.72913290    -1.24000
O549        O  0.33661197  0.13003230  0.86272077    -0.86200
O550        O  0.43182972  0.13911940  0.83666872    -0.83300
C551        C  0.44776531  0.11186855  0.83228031     0.97300
O552        O  0.42883797  0.09498712  0.81101211    -0.83300
O553        O  0.35224033  0.07084899  0.77393887    -0.85900
C554        C  0.31978828  0.05997588  0.79291285     1.01800
O555        O  0.29161441  0.07753790  0.80958990    -0.78700
O556        O  0.25881320  0.12798516  0.84316828    -0.78900
C557        C  0.28943014  0.12322902  0.86545613     1.01700
O558        O  0.29660790  0.18185458  0.82837938    -0.86200
O559        O  0.39089281  0.18561553  0.79812368    -0.83300
C560        C  0.42775205  0.17774408  0.78011022     0.97300
O561        O  0.43422594  0.14944910  0.77251439    -0.83300
O562        O  0.35146013  0.12544308  0.73703005    -0.85900
C563        C  0.30611960  0.11586764  0.73148149     1.01700
O564        O  0.27643238  0.10936558  0.75368030    -0.78700
O565        O  0.25581397  0.16328528  0.78741875    -0.78900
C566        C  0.26361226  0.18511703  0.80681525     1.01700
Cr567      Cr  0.36218705  0.15717216  0.82936429     1.93700
Cr568      Cr  0.38828518  0.11184968  0.77546422     1.93200
Cr569      Cr  0.27578293  0.12044736  0.79842821     1.39100
O570        O  0.34229631  0.13016827  0.80056582    -1.24000
O571        O  0.74185386  0.14530156  0.92645325    -0.86200
O572        O  0.64171306  0.12833511  0.92092795    -0.83300
C573        C  0.59893186  0.11614162  0.92648002     0.97300
O574        O  0.58343953  0.11390183  0.95457622    -0.83300
O575        O  0.64681104  0.07041470  0.98151356    -0.85900
C576        C  0.68750288  0.05837665  0.99226976     1.01800
O577        O  0.72458792  0.07503232  0.00139088    -0.78700
O578        O  0.76039093  0.10116967  0.94799094    -0.78900
C579        C  0.76143704  0.11837614  0.92461816     1.01700
O580        O  0.71061878  0.18819320  0.97592112    -0.86200
O581        O  0.60778155  0.17565700  0.96470849    -0.83300
C582        C  0.58663487  0.17491192  0.99140998     0.97300
O583        O  0.59798221  0.15328231  0.50966199    -0.83300
O584        O  0.65767130  0.10717583  0.53766150    -0.85900
C585        C  0.69846787  0.11814128  0.55028063     1.01700
O586        O  0.73104072  0.13210392  0.53367123    -0.78700
O587        O  0.77869479  0.15838844  0.98251531    -0.78900
C588        C  0.75770364  0.18487342  0.98275337     1.01700
Cr589      Cr  0.67583314  0.15743889  0.94928519     1.93700
Cr590      Cr  0.62550574  0.11264500  0.99469421     1.93200
Cr591      Cr  0.74419341  0.11768761  0.99039351     1.39100
O592        O  0.68157630  0.12932729  0.97837373    -1.24000
C593        C  0.53996520  0.11179306  0.84510684    -0.10000
C594        C  0.49034374  0.10132693  0.85208100     0.06200
C595        C  0.48007198  0.08996196  0.88193813    -0.03800
C596        C  0.51739816  0.09286766  0.90554543    -0.08200
C597        C  0.56544190  0.10681143  0.89966251     0.05300
C598        C  0.57787801  0.11426533  0.86828233    -0.03300
Br599      Br  0.64329035  0.13060801  0.85473145    -0.03000
H600        H  0.54795346  0.12052037  0.82204006     0.09200
H601        H  0.50752986  0.08583811  0.92892730     0.07200
Br602      Br  0.41386415  0.07292547  0.89201491    -0.03400
C603        C  0.78015119  0.07370250  0.84845904    -0.10000
C604        C  0.82059084  0.09005668  0.83449259     0.06200
C605        C  0.84480128  0.11401239  0.85172674    -0.03800
C606        C  0.82596469  0.12261132  0.88141853    -0.08200
C607        C  0.78432578  0.10693627  0.89486015     0.05300
C608        C  0.76263872  0.08153783  0.87856246    -0.03300
Br609      Br  0.70598205  0.05849249  0.89525860    -0.03000
H610        H  0.76086024  0.05541597  0.83542623     0.09200
H611        H  0.84332948  0.14192576  0.89380903     0.07200
Br612      Br  0.90038793  0.13757870  0.83461920    -0.03400
C613        C  0.76087177  0.12134286  0.59470453    -0.10000
C614        C  0.71249350  0.11113728  0.58344826     0.06200
C615        C  0.68335469  0.09123091  0.60266785    -0.03800
C616        C  0.70463953  0.08045574  0.63078709    -0.08200
C617        C  0.75471632  0.08889131  0.64043366     0.05300
C618        C  0.78186147  0.11055532  0.62261658    -0.03300
Br619      Br  0.84698296  0.12752761  0.63567141    -0.03000
H620        H  0.78376060  0.13720543  0.58121484     0.09200
H621        H  0.68255390  0.06451881  0.64467439     0.07200
Br622      Br  0.61525193  0.07673711  0.59202003    -0.03400
C623        C  0.23239958  0.10534680  0.69630586    -0.10000
C624        C  0.28634821  0.10916234  0.69958217     0.06200
C625        C  0.31860658  0.10115782  0.67412695    -0.03800
C626        C  0.29659588  0.08881437  0.64673694    -0.08200
C627        C  0.24276273  0.08338931  0.64419613     0.05300
C628        C  0.21061154  0.09199476  0.66958219    -0.03300
Br629      Br  0.13716455  0.08484900  0.67110321    -0.03000
H630        H  0.20668849  0.11132931  0.71550352     0.09200
H631        H  0.32225812  0.08258213  0.62762511     0.07200
Br632      Br  0.39287278  0.10405118  0.67573970    -0.03400
C633        C  0.27182315  0.10356581  0.94998968    -0.10000
C634        C  0.22880586  0.08352248  0.94915693     0.06200
C635        C  0.20717180  0.07563295  0.91990410    -0.03800
C636        C  0.22756409  0.08877076  0.89277521    -0.08200
C637        C  0.26946923  0.10961602  0.89430479     0.05300
C638        C  0.29170503  0.11675111  0.92338955    -0.03300
Br639      Br  0.34654848  0.14624297  0.92934738    -0.03000
H640        H  0.28982653  0.11020837  0.97182582     0.09200
H641        H  0.21082783  0.08249090  0.87034154     0.07200
Br642      Br  0.15195782  0.04644229  0.91535672    -0.03400
C643        C  0.99513683  0.11214334  0.64961738    -0.10000
C644        C  0.95886856  0.08824892  0.65276266     0.06200
C645        C  0.94989108  0.06804291  0.62680039    -0.03800
C646        C  0.97992089  0.07018176  0.60017872    -0.08200
C647        C  0.02111865  0.09069592  0.59899951     0.05300
C648        C  0.02676004  0.11328359  0.62284935    -0.03300
Br649      Br  0.08043587  0.14363767  0.62108050    -0.03000
H650        H  0.00185530  0.12821852  0.66883727     0.09200
H651        H  0.97520733  0.05297439  0.58167049     0.07200
Br652      Br  0.90185175  0.03417731  0.62597099    -0.03400
C653        C  0.74898171  0.47903117  0.01082620    -0.10000
C654        C  0.72730456  0.46013239  0.98752422     0.06200
C655        C  0.68482676  0.47083985  0.97010507    -0.03800
C656        C  0.67269989  0.00595331  0.97008948    -0.08200
C657        C  0.69368850  0.02474112  0.99389417     0.05300
C658        C  0.73239603  0.50945294  0.01493812    -0.03300
Br659      Br  0.76397800  0.53275483  0.04854955    -0.03000
H660        H  0.78069578  0.47045428  0.02496811     0.09200
H661        H  0.64675661  0.01570698  0.95290457     0.07200
Br662      Br  0.65158299  0.44538315  0.93905801    -0.03400
C663        C  0.83793470  0.25546675  0.97056458    -0.10000
C664        C  0.82258456  0.27332692  0.99662537     0.06200
C665        C  0.79427457  0.25947689  0.02075369    -0.03800
C666        C  0.77714573  0.22919439  0.01696719    -0.08200
C667        C  0.78804774  0.21246940  0.98951297     0.05300
C668        C  0.82018734  0.22522418  0.96664993    -0.03300
Br669      Br  0.83464567  0.20395231  0.42793914    -0.03000
H670        H  0.85971325  0.26589164  0.45192480     0.09200
H671        H  0.75266327  0.21929189  0.03469317     0.07200
Br672      Br  0.77597262  0.28118149  0.05872211    -0.03400
C673        C  0.00718650  0.43967291  0.51481502    -0.10000
C674        C  0.96181700  0.44840594  0.49920325     0.06200
C675        C  0.95643536  0.47941126  0.48991290    -0.03800
C676        C  0.00923338  0.99457917  0.49486496    -0.08200
C677        C  0.04107768  0.49246428  0.51303456     0.05300
C678        C  0.04683197  0.46088055  0.52128500    -0.03300
Br679      Br  0.10770545  0.44382279  0.54076894    -0.03000
H680        H  0.01252342  0.41580727  0.52133473     0.09200
H681        H  0.01108739  0.01646480  0.48307280     0.07200
Br682      Br  0.89535210  0.49386288  0.96884688    -0.03400
C683        C  0.28619431  0.47927557  0.76331779    -0.10000
C684        C  0.28536640  0.46541020  0.79269235     0.06200
C685        C  0.30075515  0.48294129  0.81934862    -0.03800
C686        C  0.31215059  0.51418525  0.81662083    -0.08200
C687        C  0.31314995  0.02649210  0.79532218     0.05300
C688        C  0.30777968  0.00698926  0.76879846    -0.03300
Br689      Br  0.31307893  0.02198490  0.72700870    -0.03000
H690        H  0.27390293  0.46633940  0.74275146     0.09200
H691        H  0.32197937  0.52762216  0.83737741     0.07200
Br692      Br  0.30615384  0.46598196  0.86047276    -0.03400
C693        C  0.21200549  0.22338516  0.77627163    -0.10000
C694        C  0.23587093  0.21512513  0.80450068     0.06200
C695        C  0.23733136  0.23723702  0.82921736    -0.03800
C696        C  0.22346433  0.26776112  0.82364550    -0.08200
C697        C  0.20362130  0.27672440  0.79470861     0.05300
C698        C  0.19443554  0.25372586  0.77156801    -0.03300
Br699      Br  0.16040997  0.26212823  0.73283052    -0.03000
H700        H  0.20851312  0.20652684  0.75739716     0.09200
H701        H  0.22887757  0.28478758  0.84212166     0.07200
Br702      Br  0.25622894  0.22777835  0.87152155    -0.03400
C703        C  0.00342975  0.44585210  0.76299930    -0.10000
C704        C  0.05374518  0.45551172  0.77126776     0.06200
C705        C  0.06340488  0.48774508  0.77196702    -0.03800
C706        C  0.02394601  0.50886133  0.76377620    -0.08200
C707        C  0.97375992  0.49907825  0.75508982     0.05300
C708        C  0.96383712  0.46687455  0.75539575    -0.03300
Br709      Br  0.89691812  0.44918900  0.74698320    -0.03000
H710        H  0.99409603  0.42147702  0.76302000     0.09200
H711        H  0.03206842  0.03352889  0.76042771     0.07200
Br712      Br  0.12955483  0.50495187  0.78316549    -0.03400
C713        C  0.99540915  0.34769263  0.85508975    -0.10000
C714        C  0.04325644  0.36101454  0.86287340     0.06200
C715        C  0.05187134  0.37122618  0.89403371    -0.03800
C716        C  0.01331093  0.36809271  0.91636323    -0.08200
C717        C  0.96408232  0.35725387  0.90818956     0.05300
C718        C  0.95528801  0.34661788  0.87719700    -0.03300
Br719      Br  0.88905713  0.33204806  0.86313336    -0.03000
H720        H  0.98780129  0.34041378  0.83118750     0.09200
H721        H  0.02054842  0.37699938  0.93977995     0.07200
Br722      Br  0.11297053  0.39268810  0.90783946    -0.03400
C723        C  0.17111026  0.18707751  0.53799067    -0.10000
C724        C  0.20901036  0.16361291  0.53628329     0.06200
C725        C  0.26130278  0.17149096  0.53152722    -0.03800
C726        C  0.27510484  0.20233455  0.52949420    -0.08200
C727        C  0.23806900  0.22585272  0.53314059     0.05300
C728        C  0.18557657  0.21825387  0.53718476    -0.03300
Br729      Br  0.13394053  0.24951709  0.54497265    -0.03000
H730        H  0.13082704  0.18120853  0.54169432     0.09200
H731        H  0.31569811  0.20809275  0.52690706     0.07200
Br732      Br  0.31629891  0.14140625  0.52866906    -0.03400
C733        C  0.29725653  0.42910409  0.56906529    -0.10000
C734        C  0.30273932  0.41585297  0.53922065     0.06200
C735        C  0.29420110  0.43394170  0.51269206    -0.03800
C736        C  0.27717952  0.46451242  0.51645580    -0.08200
C737        C  0.26858992  0.47725433  0.54640834     0.05300
C738        C  0.28105761  0.45969960  0.57288709    -0.03300
Br739      Br  0.27774568  0.47619068  0.61482140    -0.03000
H740        H  0.30469783  0.41536067  0.58952256     0.09200
H741        H  0.27773961  0.97997660  0.50076093     0.07200
Br742      Br  0.29975234  0.41713306  0.47105665    -0.03400
C743        C  0.50818431  0.19037296  0.52270073    -0.10000
C744        C  0.54618234  0.19840687  0.50079310     0.06200
C745        C  0.54404596  0.22852089  0.98846158    -0.03800
C746        C  0.50427019  0.24922009  0.49754734    -0.08200
C747        C  0.46577211  0.24106415  0.51917662     0.05300
C748        C  0.46869949  0.21111265  0.53202528    -0.03300
Br749      Br  0.42264219  0.19718007  0.56399849    -0.03000
H750        H  0.50910255  0.16759168  0.53282800     0.09200
H751        H  0.50387230  0.27214646  0.98775188     0.07200
Br752      Br  0.59611427  0.24382406  0.96078539    -0.03400
C753        C  0.22142599  0.35893393  0.63647510    -0.10000
C754        C  0.23980034  0.32829199  0.63332942     0.06200
C755        C  0.23864547  0.30910629  0.65937646    -0.03800
C756        C  0.22377952  0.32123249  0.68844109    -0.08200
C757        C  0.20673817  0.35196241  0.69213286     0.05300
C758        C  0.20450663  0.37079395  0.66566321    -0.03300
Br759      Br  0.18385013  0.41332138  0.66899093    -0.03000
H760        H  0.22240486  0.37402959  0.61656561     0.09200
H761        H  0.22674341  0.30666626  0.70862402     0.07200
Br762      Br  0.25587991  0.26593248  0.65613995    -0.03400
C763        C  0.31793515  0.36322340  0.89301949    -0.10000
C764        C  0.26662392  0.35693281  0.88371248     0.06200
C765        C  0.23805533  0.33521898  0.90069755    -0.03800
C766        C  0.25858139  0.32300465  0.92806650    -0.08200
C767        C  0.30783687  0.33153681  0.93913618     0.05300
C768        C  0.33869667  0.35070598  0.92050749    -0.03300
Br769      Br  0.40697423  0.36312932  0.93309988    -0.03000
H770        H  0.34108223  0.37912703  0.87974391     0.09200
H771        H  0.23469264  0.30778292  0.94171268     0.07200
Br772      Br  0.17114110  0.32063576  0.88762408    -0.03400
C773        C  0.76807169  0.21939591  0.75985190    -0.10000
C774        C  0.77005458  0.23427803  0.73108513     0.06200
C775        C  0.79388739  0.21921831  0.70527633    -0.03800
C776        C  0.81245356  0.18906973  0.70816086    -0.08200
C777        C  0.80772802  0.17365664  0.73638592     0.05300
C778        C  0.78610893  0.18906887  0.76255322    -0.03300
Br779      Br  0.77550581  0.16866804  0.80137524    -0.03000
H780        H  0.74936366  0.23065613  0.77976879     0.09200
H781        H  0.82918066  0.17720309  0.68793937     0.07200
Br782      Br  0.80200997  0.23856863  0.66557918    -0.03400
C783        C  0.68727025  0.44099275  0.71593942    -0.10000
C784        C  0.70363561  0.42267777  0.74073230     0.06200
C785        C  0.73779519  0.43490235  0.76337582    -0.03800
C786        C  0.75499556  0.46527866  0.76103459    -0.08200
C787        C  0.74064266  0.48312505  0.73545234     0.05300
C788        C  0.70609223  0.47097534  0.71291470    -0.03300
Br789      Br  0.68542154  0.99407560  0.67624389    -0.03000
H790        H  0.66186923  0.43142570  0.69810370     0.09200
H791        H  0.78261989  0.47419358  0.77797174     0.07200
Br792      Br  0.76633389  0.41006190  0.79592566    -0.03400
C793        C  0.54795397  0.21830790  0.74755226    -0.10000
C794        C  0.53620394  0.24974059  0.75335923     0.06200
C795        C  0.48761665  0.25695982  0.76732285    -0.03800
C796        C  0.45317930  0.23326967  0.77506514    -0.08200
C797        C  0.46505675  0.20186082  0.76933771     0.05300
C798        C  0.51349292  0.19463778  0.75522470    -0.03300
Br799      Br  0.53703801  0.15317197  0.74622595    -0.03000
H800        H  0.58460032  0.21184020  0.73688840     0.09200
H801        H  0.41658492  0.23965242  0.78585162     0.07200
Br802      Br  0.46436243  0.29837103  0.77670886    -0.03400
C803        C  0.72144596  0.31570484  0.85082728    -0.10000
C804        C  0.69125170  0.33700517  0.83435163     0.06200
C805        C  0.67723816  0.36527349  0.84888156    -0.03800
C806        C  0.69689227  0.37290211  0.87842468    -0.08200
C807        C  0.72890508  0.35221568  0.89448828     0.05300
C808        C  0.73924490  0.32278817  0.88106471    -0.03300
Br809      Br  0.78100877  0.29249882  0.90170643    -0.03000
H810        H  0.73263198  0.29398939  0.83975387     0.09200
H811        H  0.68813813  0.39541441  0.88858810     0.07200
Br812      Br  0.63448356  0.39524255  0.82845055    -0.03400
C813        C  0.71893739  0.35416910  0.61847521    -0.10000
C814        C  0.75267129  0.34001349  0.63965997     0.06200
C815        C  0.80643675  0.34005359  0.63308461    -0.03800
C816        C  0.82423437  0.35148103  0.60451198    -0.08200
C817        C  0.78980838  0.36425084  0.58258211     0.05300
C818        C  0.73665370  0.36690360  0.59081625    -0.03300
Br819      Br  0.68421636  0.38644017  0.56571030    -0.03000
H820        H  0.67787340  0.35528607  0.62337764     0.09200
H821        H  0.86516917  0.34961990  0.59910852     0.07200
Br822      Br  0.85761021  0.32387394  0.66110206    -0.03400
C823        C  0.47902204  0.32925771  0.67144212    -0.10000
C824        C  0.52330682  0.34709562  0.66833724     0.06200
C825        C  0.52973868  0.36467985  0.64128136    -0.03800
C826        C  0.49511955  0.36078895  0.61600849    -0.08200
C827        C  0.45435112  0.33938756  0.61772162     0.05300
C828        C  0.44502316  0.32501494  0.64666675    -0.03300
Br829      Br  0.38978361  0.29682535  0.65442817    -0.03000
H830        H  0.47354455  0.31599427  0.69242525     0.09200
H831        H  0.50231136  0.37270475  0.59443983     0.07200
Br832      Br  0.58670727  0.39246051  0.63748478    -0.03400
O833        O  0.75913959  0.82650645  0.19591850    -0.86200
O834        O  0.72644457  0.87357450  0.23334066    -0.83300
C835        C  0.69101032  0.89184200  0.24201785     0.97300
O836        O  0.64703396  0.88254719  0.25052123    -0.83300
O837        O  0.58721882  0.85575678  0.20451186    -0.85900
C838        C  0.57454199  0.83658899  0.18342002     1.01800
O839        O  0.58537032  0.80881656  0.18716932    -0.78700
O840        O  0.68586096  0.82292731  0.17010777    -0.78900
C841        C  0.73276984  0.83093746  0.17129704     1.01700
O842        O  0.74669300  0.78477503  0.24931278    -0.86200
O843        O  0.71781231  0.83490314  0.28551107    -0.83300
C844        C  0.67747857  0.83407962  0.30215938     0.97300
O845        O  0.63265241  0.83157737  0.29031729    -0.83300
O846        O  0.56810203  0.80292419  0.24653209    -0.85900
C847        C  0.57862733  0.77419112  0.24303508     1.01700
O848        O  0.62042992  0.76576235  0.22936742    -0.78700
O849        O  0.72092277  0.77177424  0.20289250    -0.78900
C850        C  0.74484559  0.76518370  0.22737210     1.01700
Cr851      Cr  0.73225776  0.82905758  0.24032769     1.93700
Cr852      Cr  0.61264621  0.84151969  0.24661654     1.93200
Cr853      Cr  0.65448586  0.79427320  0.19976706     1.39100
O854        O  0.66654609  0.82161929  0.22987176    -1.24000
O855        O  0.25177018  0.81665390  0.08705481    -0.86200
O856        O  0.28753914  0.86593459  0.05485560    -0.83300
C857        C  0.31629647  0.88294522  0.03890258     0.97300
O858        O  0.34925888  0.87145755  0.02005657    -0.83300
O859        O  0.42135706  0.84962786  0.06041887    -0.85900
C860        C  0.43850504  0.83360459  0.08231851     1.01800
O861        O  0.42497605  0.80587333  0.08520513    -0.78700
O862        O  0.32798869  0.81337415  0.10866375    -0.78900
C863        C  0.28047792  0.81983167  0.11079589     1.01700
O864        O  0.25490009  0.78040306  0.02962046    -0.86200
O865        O  0.27806444  0.83259860  0.99747074    -0.83300
C866        C  0.31056538  0.82478608  0.47671149     0.97300
O867        O  0.35527470  0.81523378  0.98398951    -0.83300
O868        O  0.43610105  0.79365570  0.02207862    -0.85900
C869        C  0.42870970  0.76540782  0.02853846     1.01700
O870        O  0.38941338  0.75808874  0.04413694    -0.78700
O871        O  0.29310364  0.76136016  0.07093412    -0.78900
C872        C  0.26444984  0.75799891  0.04712225     1.01700
Cr873      Cr  0.27285003  0.82306088  0.04246593     1.93700
Cr874      Cr  0.38708706  0.83087597  0.02329563     1.93200
Cr875      Cr  0.35731147  0.78655942  0.07519926     1.39100
O876        O  0.33919165  0.81314404  0.04655400    -1.24000
O877        O  0.25929713  0.87837715  0.34080176    -0.86200
O878        O  0.22228727  0.82853318  0.30801798    -0.83300
C879        C  0.19038806  0.81159872  0.29344389     0.97300
O880        O  0.15472488  0.82306346  0.27694054    -0.83300
O881        O  0.08565762  0.85182891  0.31719794    -0.85900
C882        C  0.07146548  0.87040558  0.33865389     1.01800
O883        O  0.08721349  0.89757366  0.33874343    -0.78700
O884        O  0.18342868  0.88218932  0.36255163    -0.78900
C885        C  0.23010420  0.87341010  0.36362206     1.01700
O886        O  0.25932843  0.91380905  0.28494433    -0.86200
O887        O  0.23332016  0.86061557  0.25214058    -0.83300
C888        C  0.20108178  0.86482669  0.23055472     0.97300
O889        O  0.15572985  0.87468741  0.23693161    -0.83300
O890        O  0.08079275  0.90469929  0.27588693    -0.85900
C891        C  0.08993782  0.93294063  0.28263800     1.05700
O892        O  0.12925430  0.94022479  0.29896251    -0.78700
O893        O  0.22530755  0.93251549  0.32798666    -0.78900
C894        C  0.25531077  0.93536306  0.30508928     1.01700
Cr895      Cr  0.23853664  0.87139278  0.29656696     1.93700
Cr896      Cr  0.12277122  0.86527905  0.27840981     1.93200
Cr897      Cr  0.15794618  0.91098350  0.32990806     1.39100
O898        O  0.17295367  0.88295352  0.30073226    -1.24000
O899        O  0.74867713  0.85032896  0.44851079    -0.86200
O900        O  0.77978058  0.82562877  0.50366226    -0.83300
C901        C  0.81629494  0.80757702  0.49593128     0.97300
O902        O  0.85906322  0.81823131  0.48695188    -0.83300
O903        O  0.92662662  0.85965827  0.46098912    -0.85900
C904        C  0.91597181  0.86112420  0.43210427     1.01800
O905        O  0.87320302  0.87191151  0.42316434    -0.78700
O906        O  0.77247863  0.89232529  0.42497964    -0.78900
C907        C  0.74957665  0.86650650  0.42442257     1.01700
O908        O  0.73215909  0.90928920  0.47960322    -0.86200
O909        O  0.77417063  0.88473703  0.03299569    -0.83300
C910        C  0.80454843  0.87120232  0.05138645     0.97300
O911        O  0.84536856  0.85817775  0.04076842    -0.83300
O912        O  0.90944857  0.90186775  0.01241979    -0.85900
C913        C  0.92379033  0.92177057  0.49293602     1.01700
O914        O  0.90505827  0.92096241  0.46552366    -0.78700
O915        O  0.80237061  0.93664577  0.47288573    -0.78900
C916        C  0.75500889  0.93497311  0.47957292     1.01700
Cr917      Cr  0.76348511  0.86828614  0.49030680     1.93700
Cr918      Cr  0.88115787  0.86076934  0.49892248     1.93200
Cr919      Cr  0.83745675  0.90359415  0.44893049     1.39100
O920        O  0.82757336  0.87754487  0.47951393    -1.24000
O921        O  0.17133548  0.56445424  0.10668087    -0.86200
O922        O  0.07635761  0.55634225  0.07919512    -0.83300
C923        C  0.06200683  0.58400939  0.07648371     0.97300
O924        O  0.08223386  0.60082716  0.05631920    -0.83300
O925        O  0.15938952  0.62307325  0.01899222    -0.85900
C926        C  0.19612122  0.63296384  0.03611270     1.01800
O927        O  0.22111335  0.61502108  0.05353563    -0.78700
O928        O  0.24909605  0.56461556  0.08730250    -0.78900
C929        C  0.21880616  0.57041233  0.10982496     1.01700
O930        O  0.20991300  0.51148550  0.07164550    -0.86200
O931        O  0.11708757  0.50934753  0.04005761    -0.83300
C932        C  0.07942463  0.51686168  0.02293687     0.97300
O933        O  0.07248298  0.54525242  0.01612848    -0.83300
O934        O  0.15564040  0.56876333  0.98034796    -0.85900
C935        C  0.20140691  0.57779945  0.47532987     1.01700
O936        O  0.23277333  0.58142164  0.99762401    -0.78700
O937        O  0.24937662  0.52825055  0.03019406    -0.78900
C938        C  0.24163920  0.50719931  0.04950399     1.01700
Cr939      Cr  0.14538643  0.53736325  0.07237145     1.93700
Cr940      Cr  0.12058090  0.58272095  0.01982099     1.93200
Cr941      Cr  0.23310412  0.57149216  0.04218896     1.39100
O942        O  0.16619541  0.56368013  0.04422122    -1.24000
O943        O  0.82452981  0.56559519  0.16747236    -0.86200
O944        O  0.92578810  0.55459597  0.18640828    -0.83300
C945        C  0.93435775  0.58231513  0.18100500     0.97300
O946        O  0.92207266  0.60218198  0.20158527    -0.83300
O947        O  0.86011514  0.63114449  0.24523284    -0.85900
C948        C  0.81717960  0.63918397  0.23330412     1.01800
O949        O  0.78418981  0.61942792  0.22538459    -0.78700
O950        O  0.75156180  0.56941353  0.19320072    -0.78900
C951        C  0.77737588  0.57343136  0.16835406     1.01700
O952        O  0.79244921  0.51554520  0.20538589    -0.86200
O953        O  0.89293851  0.51353786  0.23092115    -0.83300
C954        C  0.93424455  0.52253202  0.24432838     0.97300
O955        O  0.94385144  0.55151192  0.24683835    -0.83300
O956        O  0.87630236  0.58214952  0.28853801    -0.85900
C957        C  0.83117542  0.58637720  0.29958707     1.01700
O958        O  0.79177131  0.58724596  0.28207049    -0.78700
O959        O  0.76694509  0.53359342  0.25059736    -0.78900
C960        C  0.76773461  0.51222172  0.23039497     1.01700
Cr961      Cr  0.85753939  0.53944386  0.19963319     1.93700
Cr962      Cr  0.89702549  0.58991807  0.24429990     1.93200
Cr963      Cr  0.77879981  0.57654366  0.23732784     1.39100
O964        O  0.84451565  0.56855153  0.22804534    -1.24000
O965        O  0.32805881  0.63370679  0.35871689    -0.86200
O966        O  0.42498250  0.64111118  0.33474217    -0.83300
C967        C  0.44118448  0.61392122  0.33012877     0.97300
O968        O  0.42471902  0.59782563  0.30737848    -0.83300
O969        O  0.34930724  0.57352782  0.26863156    -0.85900
C970        C  0.31620575  0.56207114  0.28678792     1.01800
O971        O  0.28771348  0.57914573  0.30383978    -0.78700
O972        O  0.25177795  0.62947582  0.33729902    -0.78900
C973        C  0.28091741  0.62653238  0.36055587     1.01700
O974        O  0.29153190  0.68470971  0.32272183    -0.86200
O975        O  0.38824080  0.68826803  0.29482958    -0.83300
C976        C  0.42545687  0.68030419  0.27709760     0.97300
O977        O  0.43095316  0.65212231  0.26900417    -0.83300
O978        O  0.34859562  0.62811171  0.23212091    -0.85900
C979        C  0.30334791  0.61832220  0.22622666     1.01700
O980        O  0.27352815  0.61163174  0.24826029    -0.78700
O981        O  0.25053691  0.66500301  0.28214505    -0.78900
C982        C  0.25757631  0.68689541  0.30157368     1.01700
Cr983      Cr  0.35647177  0.65983676  0.32532963     1.93700
Cr984      Cr  0.38479963  0.61466011  0.27122221     1.93200
Cr985      Cr  0.27141541  0.62230044  0.29299296     1.39100
O986        O  0.33778484  0.63264340  0.29609216    -1.24000
O987        O  0.73450456  0.64326316  0.42494115    -0.86200
O988        O  0.63525199  0.62252222  0.41989378    -0.83300
C989        C  0.59234129  0.61061350  0.42609361     0.97300
O990        O  0.57807561  0.60862617  0.45450852    -0.83300
O991        O  0.64435893  0.56637833  0.48230047    -0.85900
C992        C  0.68653738  0.55531478  0.49225630     1.01800
O993        O  0.72343243  0.57284513  0.49997536    -0.78700
O994        O  0.75772688  0.60019094  0.44675535    -0.78900
C995        C  0.75727795  0.61727822  0.42326456     1.01700
O996        O  0.69986368  0.68546678  0.47365756    -0.86200
O997        O  0.59879651  0.66973293  0.46264523    -0.83300
C998        C  0.58046290  0.67056951  0.49002624     0.97300
O999        O  0.59298195  0.64957359  0.00880161    -0.83300
O1000       O  0.65428594  0.60410886  0.03730562    -0.85900
C1001       C  0.69496726  0.61538566  0.04970106     1.01700
O1002       O  0.72659029  0.62988739  0.03291741    -0.78700
O1003       O  0.77042711  0.65809679  0.48157455    -0.78900
C1004       C  0.74684916  0.68385207  0.48137344     1.01700
Cr1005     Cr  0.66776421  0.65320874  0.44759891     1.93700
Cr1006     Cr  0.62129063  0.60866980  0.49447787     1.93200
Cr1007     Cr  0.73984701  0.61613277  0.48927044     1.39100
O1008       O  0.67619313  0.62589146  0.47730835    -1.24000
C1009       C  0.53308573  0.60599994  0.34452293    -0.10000
C1010       C  0.48075639  0.60223184  0.35188243     0.06200
C1011       C  0.46718506  0.59478303  0.38266741    -0.03800
C1012       C  0.50478959  0.59515325  0.40631134    -0.08200
C1013       C  0.55667272  0.60236029  0.39973200     0.05300
C1014       C  0.57123423  0.60540833  0.36786582    -0.03300
Br1015     Br  0.64166358  0.61007266  0.35395008    -0.03000
H1016       H  0.54403261  0.61129960  0.32080201     0.09200
H1017       H  0.49266014  0.59147762  0.43014804     0.07200
Br1018     Br  0.39726298  0.58526531  0.39378296    -0.03400
C1019       C  0.79933272  0.56972193  0.35154348    -0.10000
C1020       C  0.82280417  0.59237138  0.33336591     0.06200
C1021       C  0.82770958  0.62250791  0.34594067    -0.03800
C1022       C  0.80798790  0.62980970  0.37567148    -0.08200
C1023       C  0.78333093  0.60743927  0.39367730     0.05300
C1024       C  0.78005054  0.57688118  0.38153841    -0.03300
Br1025     Br  0.74423819  0.54484874  0.40305145    -0.03000
H1026       H  0.79373140  0.54673209  0.34176658     0.09200
H1027       H  0.81055842  0.65339812  0.38436617     0.07200
Br1028     Br  0.85684536  0.65526329  0.32225681    -0.03400
C1029       C  0.75695053  0.61992478  0.09452983    -0.10000
C1030       C  0.70965060  0.60837039  0.08287577     0.06200
C1031       C  0.68210718  0.58737062  0.10179564    -0.03800
C1032       C  0.70382177  0.57702270  0.12998747    -0.08200
C1033       C  0.75286257  0.58690452  0.14007281     0.05300
C1034       C  0.77838466  0.60955641  0.12257170    -0.03300
Br1035     Br  0.84126040  0.62877178  0.13667532    -0.03000
H1036       H  0.77850825  0.63664032  0.08133562     0.09200
H1037       H  0.68296741  0.56030274  0.14357380     0.07200
Br1038     Br  0.61567762  0.57067990  0.09064710    -0.03400
C1039       C  0.22953216  0.60693887  0.19117227    -0.10000
C1040       C  0.28346545  0.61136707  0.19423070     0.06200
C1041       C  0.31550388  0.60314435  0.16873421    -0.03800
C1042       C  0.29341959  0.59034655  0.14149340    -0.08200
C1043       C  0.23974310  0.58434201  0.13925164     0.05300
C1044       C  0.20781297  0.59270965  0.16484878    -0.03300
Br1045     Br  0.13508141  0.58343987  0.16755897    -0.03000
H1046       H  0.20385149  0.61282498  0.21041051     0.09200
H1047       H  0.31892018  0.58416596  0.12229208     0.07200
Br1048     Br  0.38966033  0.60615495  0.17028970    -0.03400
C1049       C  0.25380663  0.61420320  0.44580295    -0.10000
C1050       C  0.21880510  0.58932866  0.44480015     0.06200
C1051       C  0.20280456  0.57746752  0.41557066    -0.03800
C1052       C  0.22297094  0.59020399  0.38822080    -0.08200
C1053       C  0.25918299  0.61449815  0.38964038     0.05300
C1054       C  0.27406478  0.62665881  0.41883298    -0.03300
Br1055     Br  0.31975873  0.66131716  0.42364773    -0.03000
H1056       H  0.26537699  0.62449732  0.46794745     0.09200
H1057       H  0.21128838  0.58060921  0.36576719     0.07200
Br1058     Br  0.15642773  0.54316831  0.41170491    -0.03400
C1059       C  0.99534741  0.61350132  0.14844500    -0.10000
C1060       C  0.95811726  0.58998914  0.15063249     0.06200
C1061       C  0.94725051  0.57162541  0.12363435    -0.03800
C1062       C  0.97669735  0.57476900  0.09687611    -0.08200
C1063       C  0.01906505  0.59449625  0.09650402     0.05300
C1064       C  0.02626240  0.61568732  0.12146372    -0.03300
Br1065     Br  0.08097200  0.64544430  0.12071266    -0.03000
H1066       H  0.00334255  0.62836661  0.16845713     0.09200
H1067       H  0.97058003  0.55875267  0.07745929     0.07200
Br1068     Br  0.89710419  0.53902750  0.12131463    -0.03400
C1069       C  0.74343551  0.98108844  0.51247399    -0.10000
C1070       C  0.72677751  0.96342282  0.48683519     0.06200
C1071       C  0.68905044  0.97526044  0.46647634    -0.03800
C1072       C  0.66889448  0.50167941  0.47353384    -0.08200
C1073       C  0.69460103  0.52169788  0.49450452     0.05300
C1074       C  0.72660211  0.01145953  0.51649338    -0.03300
Br1075     Br  0.75130855  0.03353769  0.55288208    -0.03000
H1076       H  0.77141389  0.97161629  0.52867581     0.09200
H1077       H  0.63893016  0.51047931  0.45826659     0.07200
Br1078     Br  0.66349733  0.95171275  0.43150290    -0.03400
C1079       C  0.83183449  0.75401634  0.47543967    -0.10000
C1080       C  0.80701939  0.77398947  0.49703713     0.06200
C1081       C  0.76875720  0.76194375  0.51702143    -0.03800
C1082       C  0.75183910  0.73172306  0.51254464    -0.08200
C1083       C  0.77365625  0.71264348  0.48932614     0.05300
C1084       C  0.81560658  0.72334718  0.47163064    -0.03300
Br1085     Br  0.84814787  0.69804200  0.93996318    -0.03000
H1086       H  0.86166509  0.76272341  0.96019851     0.09200
H1087       H  0.72031694  0.72329157  0.52672286     0.07200
Br1088     Br  0.73765570  0.78525139  0.55092282    -0.03400
C1089       C  0.00101847  0.93833982  0.02506908    -0.10000
C1090       C  0.96476147  0.94513299  0.00153829     0.06200
C1091       C  0.96961896  0.97380474  0.98633650    -0.03800
C1092       C  0.99539429  0.50106591  0.99712299    -0.08200
C1093       C  0.04564725  0.98785412  0.01837862     0.05300
C1094       C  0.04096048  0.95897387  0.03346935    -0.03300
Br1095     Br  0.08600244  0.94594829  0.06663986    -0.03000
H1096       H  0.99858686  0.91654907  0.03703000     0.09200
H1097       H  0.98942505  0.52484967  0.99057649     0.07200
Br1098     Br  0.92160872  0.98733015  0.45500645    -0.03400
C1099       C  0.29317859  0.97621038  0.27250322    -0.10000
C1100       C  0.28339163  0.96467762  0.30231658     0.06200
C1101       C  0.29292698  0.98371431  0.32892870    -0.03800
C1102       C  0.30725966  0.01433256  0.32513021    -0.08200
C1103       C  0.30978231  0.52843644  0.28765729     0.05300
C1104       C  0.29825940  0.51064986  0.26063066    -0.03300
Br1105     Br  0.29245853  0.52884890  0.22022229    -0.03000
H1106       H  0.28573808  0.96199864  0.25192483     0.09200
H1107       H  0.31234724  0.02906163  0.34564135     0.07200
Br1108     Br  0.28598534  0.97003510  0.37127219    -0.03400
C1109       C  0.21472367  0.72797545  0.27079796    -0.10000
C1110       C  0.22774790  0.71597687  0.30001168     0.06200
C1111       C  0.21913085  0.73428453  0.32722140    -0.03800
C1112       C  0.20446905  0.76512481  0.32452763    -0.08200
C1113       C  0.19623967  0.77794400  0.29519948     0.05300
C1114       C  0.19868355  0.75878177  0.26821627    -0.03300
Br1115     Br  0.18642497  0.77411868  0.22709300    -0.03000
H1116       H  0.22049846  0.71410166  0.24975691     0.09200
H1117       H  0.20091513  0.77944379  0.34544254     0.07200
Br1118     Br  0.22734003  0.71886053  0.36880039    -0.03400
C1119       C  0.99913498  0.94715563  0.26865179    -0.10000
C1120       C  0.05065755  0.95675023  0.27353447     0.06200
C1121       C  0.06164350  0.98855993  0.27116559    -0.03800
C1122       C  0.02208450  0.00942841  0.26294014    -0.08200
C1123       C  0.97069105  0.99967010  0.25733418     0.05300
C1124       C  0.95945557  0.96801740  0.26106670    -0.03300
Br1125     Br  0.89071490  0.95139072  0.25782378    -0.03000
H1126       H  0.98907842  0.92309190  0.27144217     0.09200
H1127       H  0.03301514  0.53327015  0.26389746     0.07200
Br1128     Br  0.12987774  0.00510288  0.27767424    -0.03400
C1129       C  0.98962554  0.84628031  0.35643485    -0.10000
C1130       C  0.03557269  0.86197947  0.36372987     0.06200
C1131       C  0.04286212  0.87377806  0.39451950    -0.03800
C1132       C  0.00524104  0.86938302  0.41699628    -0.08200
C1133       C  0.95766084  0.85619427  0.40919524     0.05300
C1134       C  0.94980787  0.84437876  0.37860331    -0.03300
Br1135     Br  0.88511032  0.82724532  0.36523362    -0.03000
H1136       H  0.98291424  0.83786155  0.33280290     0.09200
H1137       H  0.01126406  0.87941040  0.44010552     0.07200
Br1138     Br  0.09967407  0.89938256  0.40784684    -0.03400
C1139       C  0.17598816  0.68945323  0.03379723    -0.10000
C1140       C  0.21272254  0.66532667  0.03463458     0.06200
C1141       C  0.26601614  0.67246724  0.03508754    -0.03800
C1142       C  0.28147348  0.70302560  0.03820220    -0.08200
C1143       C  0.24493322  0.72701816  0.03974608     0.05300
C1144       C  0.19188904  0.72036108  0.03608335    -0.03300
Br1145     Br  0.14013112  0.75237739  0.03623145    -0.03000
H1146       H  0.13498843  0.68425558  0.03258145     0.09200
H1147       H  0.32249860  0.70810909  0.03962700     0.07200
Br1148     Br  0.31987095  0.64175979  0.03032189    -0.03400
C1149       C  0.30484973  0.92892388  0.07238328    -0.10000
C1150       C  0.30972829  0.91639893  0.04214800     0.06200
C1151       C  0.30235672  0.93542278  0.01616080    -0.03800
C1152       C  0.28659720  0.96605973  0.02086664    -0.08200
C1153       C  0.27740652  0.97778983  0.05113348     0.05300
C1154       C  0.28908634  0.95943594  0.07710855    -0.03300
Br1155     Br  0.28363283  0.97438133  0.11953774    -0.03000
H1156       H  0.31149839  0.91453040  0.09245031     0.09200
H1157       H  0.26783556  0.47773911  0.99593965     0.07200
Br1158     Br  0.30598486  0.91997432  0.97394720    -0.03400
C1159       C  0.50914332  0.69034430  0.02485040    -0.10000
C1160       C  0.54248920  0.69542895  0.99956902     0.06200
C1161       C  0.53857245  0.72416711  0.48427952    -0.03800
C1162       C  0.50133904  0.74630068  0.99386816    -0.08200
C1163       C  0.46727905  0.74092091  0.01879337     0.05300
C1164       C  0.47230739  0.71250641  0.03462333    -0.03300
Br1165     Br  0.43299887  0.70265987  0.07120435    -0.03000
H1166       H  0.51169818  0.66881297  0.03733797     0.09200
H1167       H  0.49921683  0.76803104  0.48172027     0.07200
Br1168     Br  0.58451742  0.73583246  0.45127282    -0.03400
C1169       C  0.21558089  0.85136519  0.14179111    -0.10000
C1170       C  0.25861795  0.83097255  0.14107408     0.06200
C1171       C  0.28130328  0.82237684  0.16956440    -0.03800
C1172       C  0.26153670  0.83415491  0.19752171    -0.08200
C1173       C  0.21867637  0.85464194  0.19871314     0.05300
C1174       C  0.19562427  0.86329544  0.17026099    -0.03300
Br1175     Br  0.13921804  0.89230137  0.16865052    -0.03000
H1176       H  0.19807576  0.85859886  0.12009388     0.09200
H1177       H  0.27983256  0.82637472  0.21878441     0.07200
Br1178     Br  0.33783112  0.79327872  0.17281961    -0.03400
C1179       C  0.30404877  0.86299137  0.39898279    -0.10000
C1180       C  0.25181512  0.85784931  0.39111366     0.06200
C1181       C  0.22292064  0.83676490  0.40865889    -0.03800
C1182       C  0.24489552  0.82372213  0.43517049    -0.08200
C1183       C  0.29585095  0.83063698  0.44426461     0.05300
C1184       C  0.32627772  0.84953032  0.42526402    -0.03300
Br1185     Br  0.39618621  0.86065652  0.43586860    -0.03000
H1186       H  0.32725905  0.87849745  0.38526399     0.09200
H1187       H  0.22134936  0.80895414  0.44952671     0.07200
Br1188     Br  0.15456573  0.82355036  0.39715439    -0.03400
C1189       C  0.74259303  0.71095984  0.21139428    -0.10000
C1190       C  0.76748568  0.73394608  0.22910315     0.06200
C1191       C  0.81239262  0.72626660  0.24612421    -0.03800
C1192       C  0.82983209  0.69541828  0.24625720    -0.08200
C1193       C  0.80301214  0.67211908  0.22955361     0.05300
C1194       C  0.75978860  0.68065994  0.21108063    -0.03300
Br1195     Br  0.72070215  0.65328976  0.18419301    -0.03000
H1196       H  0.70851647  0.71646725  0.19771697     0.09200
H1197       H  0.86374546  0.68963115  0.25986822     0.07200
Br1198     Br  0.85228039  0.75686956  0.26820302    -0.03400
C1199       C  0.68663585  0.94227528  0.21663741    -0.10000
C1200       C  0.70207180  0.92482278  0.24224304     0.06200
C1201       C  0.73372298  0.93810978  0.26558605    -0.03800
C1202       C  0.74994157  0.96863583  0.26289347    -0.08200
C1203       C  0.73707225  0.98553435  0.23636885     0.05300
C1204       C  0.70462002  0.97236646  0.21327472    -0.03300
Br1205     Br  0.68480304  0.49406414  0.17717365    -0.03000
H1206       H  0.66293137  0.93189721  0.19840489     0.09200
H1207       H  0.77577723  0.97840215  0.28038390     0.07200
Br1208     Br  0.75927170  0.91468781  0.30006409    -0.03400
C1209       C  0.54635089  0.71950171  0.24288844    -0.10000
C1210       C  0.53964946  0.75044721  0.25281019     0.06200
C1211       C  0.49459355  0.75787555  0.27056044    -0.03800
C1212       C  0.45796441  0.73498452  0.27722282    -0.08200
C1213       C  0.46454099  0.70401608  0.26721665     0.05300
C1214       C  0.51005387  0.69651993  0.24989386    -0.03300
Br1215     Br  0.52704901  0.65548184  0.23515004    -0.03000
H1216       H  0.58021392  0.71294994  0.22933454     0.09200
H1217       H  0.42426700  0.74155978  0.29091782     0.07200
Br1218     Br  0.48040580  0.79834554  0.28792827    -0.03400
C1219       C  0.71526920  0.81808823  0.35274980    -0.10000
C1220       C  0.68430255  0.83885073  0.33604421     0.06200
C1221       C  0.67030089  0.86734650  0.35014815    -0.03800
C1222       C  0.69112879  0.87578990  0.37923789    -0.08200
C1223       C  0.72372047  0.85556001  0.39548617     0.05300
C1224       C  0.73362754  0.82581932  0.38269344    -0.03300
Br1225     Br  0.77518004  0.79580512  0.40400492    -0.03000
H1226       H  0.72670573  0.79621386  0.34200099     0.09200
H1227       H  0.68250909  0.89851886  0.38896265     0.07200
Br1228     Br  0.62651009  0.89661087  0.32941246    -0.03400
C1229       C  0.72299163  0.86347530  0.12479348    -0.10000
C1230       C  0.75561591  0.84529707  0.14334883     0.06200
C1231       C  0.80720011  0.84015208  0.13360213    -0.03800
C1232       C  0.82348128  0.85078861  0.10447571    -0.08200
C1233       C  0.78947955  0.86697441  0.08466792     0.05300
C1234       C  0.73920642  0.87453195  0.09599195    -0.03300
Br1235     Br  0.68864490  0.89838363  0.07350932    -0.03000
H1236       H  0.68372559  0.86854748  0.13245138     0.09200
H1237       H  0.86238264  0.84502118  0.09671640     0.07200
Br1238     Br  0.85589871  0.81655079  0.15749245    -0.03400
C1239       C  0.50047037  0.86221626  0.15635200    -0.10000
C1240       C  0.54669294  0.84485864  0.15458138     0.06200
C1241       C  0.56017755  0.83018919  0.12575865    -0.03800
C1242       C  0.52678015  0.83161849  0.10046690    -0.08200
C1243       C  0.47823500  0.84539548  0.10353291     0.05300
C1244       C  0.46548853  0.86191110  0.13113650    -0.03300
Br1245     Br  0.39823663  0.88041820  0.13665815    -0.03000
H1246       H  0.48905148  0.87314926  0.17825996     0.09200
H1247       H  0.53609901  0.81849780  0.07935734     0.07200
Br1248     Br  0.61881173  0.80333691  0.11931633    -0.03400
O1249       O  0.75914759  0.82649157  0.69591531    -0.86200
O1250       O  0.72646282  0.87356257  0.73333463    -0.83300
C1251       C  0.69103229  0.89183175  0.74201299     0.97300
O1252       O  0.64705706  0.88253941  0.75052074    -0.83300
O1253       O  0.58724030  0.85574962  0.70451181    -0.85900
C1254       C  0.57456006  0.83657900  0.68342348     1.01800
O1255       O  0.58537722  0.80880652  0.68718040    -0.78700
O1256       O  0.68586619  0.82291121  0.67010753    -0.78900
C1257       C  0.73277502  0.83092231  0.67129449     1.01700
O1258       O  0.74670218  0.78476512  0.74931586    -0.86200
O1259       O  0.71782888  0.83489710  0.78551094    -0.83300
C1260       C  0.67749489  0.83407501  0.80215975     0.97300
O1261       O  0.63266866  0.83157249  0.79031813    -0.83300
O1262       O  0.56811319  0.80292128  0.74653698    -0.85900
C1263       C  0.57863424  0.77418745  0.74304317     1.01700
O1264       O  0.62043809  0.76575556  0.72937863    -0.78700
O1265       O  0.72092807  0.77176050  0.70289725    -0.78900
C1266       C  0.74484864  0.76517114  0.72737789     1.01700
Cr1267     Cr  0.73227191  0.82904694  0.74032661     1.93700
Cr1268     Cr  0.61266326  0.84151407  0.74661794     1.93200
Cr1269     Cr  0.65449292  0.79426120  0.69977274     1.39100
O1270       O  0.66655938  0.82160986  0.72987386    -1.24000
O1271       O  0.25177536  0.81665391  0.58705809    -0.86200
O1272       O  0.28755033  0.86593433  0.55486300    -0.83300
C1273       C  0.31631057  0.88294519  0.53891223     0.97300
O1274       O  0.34927536  0.87145801  0.52006746    -0.83300
O1275       O  0.42136973  0.84962253  0.56042865    -0.85900
C1276       C  0.43851994  0.83359587  0.58232493     1.01800
O1277       O  0.42498043  0.80586654  0.58521313    -0.78700
O1278       O  0.32799055  0.81336935  0.60867236    -0.78900
C1279       C  0.28047962  0.81982864  0.61080116     1.01700
O1280       O  0.25490661  0.78040458  0.52962192    -0.86200
O1281       O  0.27807815  0.83260237  0.49747548    -0.83300
C1282       C  0.31055021  0.82478092  0.97670648     0.97300
O1283       O  0.35528860  0.81523749  0.48399533    -0.83300
O1284       O  0.43610735  0.79365269  0.52208686    -0.85900
C1285       C  0.42871300  0.76540508  0.52854636     1.01700
O1286       O  0.38941376  0.75808644  0.54414226    -0.78700
O1287       O  0.29310245  0.76135905  0.57093670    -0.78900
C1288       C  0.26445135  0.75799920  0.54712325     1.01700
Cr1289     Cr  0.27285915  0.82306190  0.54247028     1.93700
Cr1290     Cr  0.38709847  0.83087484  0.52330432     1.93200
Cr1291     Cr  0.35731324  0.78655621  0.57520538     1.39100
O1292       O  0.33919925  0.81314324  0.54656064    -1.24000
O1293       O  0.25928447  0.87838196  0.84080472    -0.86200
O1294       O  0.22228434  0.82853703  0.80802130    -0.83300
C1295       C  0.19038353  0.81160119  0.79345030     0.97300
O1296       O  0.15471940  0.82306386  0.77694643    -0.83300
O1297       O  0.08564761  0.85183193  0.81719853    -0.85900
C1298       C  0.07145215  0.87041036  0.83865217     1.01800
O1299       O  0.08720155  0.89757807  0.83874033    -0.78700
O1300       O  0.18341346  0.88219150  0.86255185    -0.78900
C1301       C  0.23008885  0.87341254  0.86362326     1.01700
O1302       O  0.25932139  0.91381242  0.78494658    -0.86200
O1303       O  0.23332227  0.86061560  0.75214244    -0.83300
C1304       C  0.20108151  0.86482304  0.73055705     0.97300
O1305       O  0.15572934  0.87468405  0.73693293    -0.83300
O1306       O  0.08079153  0.90469936  0.77588344    -0.85900
C1307       C  0.08993709  0.93294073  0.78263380     1.05700
O1308       O  0.12925153  0.94022546  0.79895956    -0.78700
O1309       O  0.22529862  0.93251716  0.82798890    -0.78900
C1310       C  0.25530275  0.93536582  0.80509221     1.01700
Cr1311     Cr  0.23853164  0.87139585  0.79656924     1.93700
Cr1312     Cr  0.12276676  0.86527907  0.77841063     1.93200
Cr1313     Cr  0.15793673  0.91098563  0.82990736     1.39100
O1314       O  0.17294740  0.88295499  0.80073282    -1.24000
O1315       O  0.74866112  0.85032880  0.94851764    -0.86200
O1316       O  0.77977240  0.82563111  0.00366874    -0.83300
C1317       C  0.81628616  0.80757988  0.99593548     0.97300
O1318       O  0.85905239  0.81823497  0.98695350    -0.83300
O1319       O  0.92661016  0.85966379  0.96098749    -0.85900
C1320       C  0.91595297  0.86113090  0.93210295     1.01800
O1321       O  0.87318188  0.87191675  0.92316490    -0.78700
O1322       O  0.77245550  0.89232666  0.92498639    -0.78900
C1323       C  0.74955906  0.86650610  0.92442922     1.01700
O1324       O  0.73214020  0.90928938  0.97960950    -0.86200
O1325       O  0.77417888  0.88473344  0.53299198    -0.83300
C1326       C  0.80455391  0.87119755  0.55138372     0.97300
O1327       O  0.84537610  0.85817408  0.54076701    -0.83300
O1328       O  0.90946458  0.90186286  0.51242000    -0.85900
C1329       C  0.92377470  0.92177437  0.99293492     1.01700
O1330       O  0.90503864  0.92096559  0.96552377    -0.78700
O1331       O  0.80234968  0.93664750  0.97289221    -0.78900
C1332       C  0.75498855  0.93497378  0.97958115     1.01700
Cr1333     Cr  0.76347160  0.86828749  0.99031246     1.93700
Cr1334     Cr  0.88114535  0.86077344  0.99892294     1.93200
Cr1335     Cr  0.83743556  0.90359742  0.94893375     1.39100
O1336       O  0.82755771  0.87754730  0.97951661    -1.24000
O1337       O  0.17132677  0.56445041  0.60667798    -0.86200
O1338       O  0.07635254  0.55633387  0.57918818    -0.83300
C1339       C  0.06200050  0.58400106  0.57647905     0.97300
O1340       O  0.08222691  0.60082080  0.55631599    -0.83300
O1341       O  0.15937959  0.62307235  0.51898812    -0.85900
C1342       C  0.19611024  0.63296424  0.53610893     1.01800
O1343       O  0.22109996  0.61502206  0.55353364    -0.78700
O1344       O  0.24908849  0.56461839  0.58730127    -0.78900
C1345       C  0.21879607  0.57041202  0.60982343     1.01700
O1346       O  0.20991574  0.51148499  0.57164218    -0.86200
O1347       O  0.11709255  0.50934211  0.54005079    -0.83300
C1348       C  0.07942788  0.51685517  0.52293079     0.97300
O1349       O  0.07248242  0.54524610  0.51612389    -0.83300
O1350       O  0.15563647  0.56876160  0.48034409    -0.85900
C1351       C  0.20141111  0.57780042  0.97533302     1.01700
O1352       O  0.23276729  0.58142201  0.49762175    -0.78700
O1353       O  0.24937886  0.52825300  0.53019194    -0.78900
C1354       C  0.24164280  0.50720073  0.54950083     1.01700
Cr1355     Cr  0.14538475  0.53735882  0.57236653     1.93700
Cr1356     Cr  0.12057542  0.58271732  0.51981716     1.93200
Cr1357     Cr  0.23309841  0.57149366  0.54218697     1.39100
O1358       O  0.16619138  0.56367783  0.54421758    -1.24000
O1359       O  0.82454369  0.56558707  0.66747738    -0.86200
O1360       O  0.92580483  0.55458966  0.68641384    -0.83300
C1361       C  0.93436703  0.58230870  0.68100730     0.97300
O1362       O  0.92207876  0.60217621  0.70158612    -0.83300
O1363       O  0.86011968  0.63113542  0.74523539    -0.85900
C1364       C  0.81717784  0.63917122  0.73331250     1.01800
O1365       O  0.78419156  0.61941269  0.72539516    -0.78700
O1366       O  0.75157589  0.56939953  0.69320713    -0.78900
C1367       C  0.77738866  0.57342135  0.66836065     1.01700
O1368       O  0.79247043  0.51553391  0.70538789    -0.86200
O1369       O  0.89295947  0.51353105  0.73092483    -0.83300
C1370       C  0.93426359  0.52252775  0.74433276     0.97300
O1371       O  0.94386817  0.55150808  0.74684112    -0.83300
O1372       O  0.87632046  0.58214432  0.78854117    -0.85900
C1373       C  0.83119272  0.58636430  0.79959167     1.01700
O1374       O  0.79178624  0.58722671  0.78207690    -0.78700
O1375       O  0.76697085  0.53357688  0.75060186    -0.78900
C1376       C  0.76775892  0.51220759  0.73039746     1.01700
Cr1377     Cr  0.85755743  0.53943540  0.69963691     1.93700
Cr1378     Cr  0.89703753  0.58991196  0.74430218     1.93200
Cr1379     Cr  0.77881395  0.57652780  0.73733452     1.39100
O1380       O  0.84453041  0.56854162  0.72804980    -1.24000
O1381       O  0.32806434  0.63370529  0.85872000    -0.86200
O1382       O  0.42498471  0.64110929  0.83473899    -0.83300
C1383       C  0.44118638  0.61392009  0.83012116     0.97300
O1384       O  0.42471544  0.59782639  0.80737108    -0.83300
O1385       O  0.34929314  0.57353214  0.76863118    -0.85900
C1386       C  0.31619562  0.56207600  0.78679035     1.01800
O1387       O  0.28770497  0.57915066  0.80384298    -0.78700
O1388       O  0.25177965  0.62948000  0.83730566    -0.78900
C1389       C  0.28092215  0.62653305  0.86056056     1.01700
O1390       O  0.29153622  0.68471122  0.82273000    -0.86200
O1391       O  0.38824065  0.68826928  0.79483355    -0.83300
C1392       C  0.42545345  0.68030510  0.77709935     0.97300
O1393       O  0.43094125  0.65212447  0.76899938    -0.83300
O1394       O  0.34857584  0.62811603  0.73212125    -0.85900
C1395       C  0.30332799  0.61832571  0.72622898     1.01700
O1396       O  0.27351004  0.61163764  0.74826438    -0.78700
O1397       O  0.25053222  0.66500929  0.78215429    -0.78900
C1398       C  0.25757669  0.68689973  0.80158460     1.01700
Cr1399     Cr  0.35647386  0.65983666  0.82533249     1.93700
Cr1400     Cr  0.38478759  0.61466313  0.77121938     1.93200
Cr1401     Cr  0.27140819  0.62230565  0.79299824     1.39100
O1402       O  0.33777928  0.63264624  0.79609381    -1.24000
O1403       O  0.73451253  0.64326244  0.92493384    -0.86200
O1404       O  0.63525929  0.62252356  0.91988234    -0.83300
C1405       C  0.59234826  0.61061465  0.92608086     0.97300
O1406       O  0.57807993  0.60862766  0.95449531    -0.83300
O1407       O  0.64436057  0.56638159  0.98229284    -0.85900
C1408       C  0.68653651  0.55531884  0.99225339     1.01800
O1409       O  0.72342964  0.57285003  0.99997399    -0.78700
O1410       O  0.75773032  0.60019156  0.94675337    -0.78900
C1411       C  0.75728496  0.61727691  0.92326118     1.01700
O1412       O  0.69986528  0.68546949  0.97364687    -0.86200
O1413       O  0.59879915  0.66973727  0.96263113    -0.83300
C1414       C  0.58046101  0.67057333  0.99001129     0.97300
O1415       O  0.59298616  0.64956984  0.50881611    -0.83300
O1416       O  0.65429265  0.60410264  0.53731479    -0.85900
C1417       C  0.69497619  0.61537757  0.54970925     1.01700
O1418       O  0.72659949  0.62987866  0.53292501    -0.78700
O1419       O  0.77042744  0.65809987  0.98156775    -0.78900
C1420       C  0.74684915  0.68385491  0.98136610     1.01700
Cr1421     Cr  0.66776881  0.65321080  0.94758797     1.93700
Cr1422     Cr  0.62128927  0.60867343  0.99446676     1.93200
Cr1423     Cr  0.73984531  0.61613697  0.98926561     1.39100
O1424       O  0.67619341  0.62589470  0.97729910    -1.24000
C1425       C  0.53309028  0.60600478  0.84451045    -0.10000
C1426       C  0.48076281  0.60222919  0.85187056     0.06200
C1427       C  0.46719569  0.59477495  0.88265466    -0.03800
C1428       C  0.50480176  0.59514578  0.90629764    -0.08200
C1429       C  0.55668193  0.60236043  0.89971840     0.05300
C1430       C  0.57124042  0.60541512  0.86785241    -0.03300
Br1431     Br  0.64166626  0.61009382  0.85393555    -0.03000
H1432       H  0.54403344  0.61130990  0.82079026     0.09200
H1433       H  0.49267494  0.59146562  0.93013388     0.07200
Br1434     Br  0.39727516  0.58525347  0.89377126    -0.03400
C1435       C  0.79931120  0.56971559  0.85154017    -0.10000
C1436       C  0.82282158  0.59235687  0.83337035     0.06200
C1437       C  0.82776144  0.62248922  0.84595049    -0.03800
C1438       C  0.80803439  0.62979547  0.87567919    -0.08200
C1439       C  0.78333979  0.60743326  0.89367681     0.05300
C1440       C  0.78002480  0.57687891  0.88153275    -0.03300
Br1441     Br  0.74415730  0.54486088  0.90303479    -0.03000
H1442       H  0.79368271  0.54673010  0.84175840     0.09200
H1443       H  0.81063013  0.65338147  0.88437849     0.07200
Br1444     Br  0.85694613  0.65523504  0.82227412    -0.03400
C1445       C  0.75695584  0.61991983  0.59454030    -0.10000
C1446       C  0.70965956  0.60836203  0.58288414     0.06200
C1447       C  0.68211904  0.58735956  0.60180262    -0.03800
C1448       C  0.70383409  0.57701168  0.62999436    -0.08200
C1449       C  0.75287218  0.58689653  0.64008133     0.05300
C1450       C  0.77838958  0.60955210  0.62258275    -0.03300
Br1451     Br  0.84125992  0.62877108  0.63668983    -0.03000
H1452       H  0.77851075  0.63663758  0.58134744     0.09200
H1453       H  0.68298277  0.56028917  0.64357903     0.07200
Br1454     Br  0.61569367  0.57066417  0.59065207    -0.03400
C1455       C  0.22951325  0.60693330  0.69117481    -0.10000
C1456       C  0.28344540  0.61136667  0.69423336     0.06200
C1457       C  0.31548533  0.60314785  0.66873619    -0.03800
C1458       C  0.29340408  0.59034982  0.64149453    -0.08200
C1459       C  0.23972896  0.58434168  0.63925166     0.05300
C1460       C  0.20779691  0.59270535  0.66484934    -0.03300
Br1461     Br  0.13506579  0.58343359  0.66755616    -0.03000
H1462       H  0.20383141  0.61281586  0.71041346     0.09200
H1463       H  0.31890620  0.58417239  0.62229311     0.07200
Br1464     Br  0.38964109  0.60616440  0.67029107    -0.03400
C1465       C  0.25379210  0.61421390  0.94580671    -0.10000
C1466       C  0.21880688  0.58933119  0.94480383     0.06200
C1467       C  0.20282430  0.57746064  0.91557475    -0.03800
C1468       C  0.22299228  0.59019612  0.88822496    -0.08200
C1469       C  0.25918908  0.61449819  0.88964469     0.05300
C1470       C  0.27405311  0.62666813  0.91883661    -0.03300
Br1471     Br  0.31972478  0.66133713  0.92364829    -0.03000
H1472       H  0.26534756  0.62451432  0.96795097     0.09200
H1473       H  0.21132351  0.58059472  0.86577165     0.07200
Br1474     Br  0.15647186  0.54314969  0.91171061    -0.03400
C1475       C  0.99534462  0.61349588  0.64844079    -0.10000
C1476       C  0.95811987  0.58998125  0.65063275     0.06200
C1477       C  0.94725423  0.57161289  0.62363761    -0.03800
C1478       C  0.97669663  0.57475564  0.59687757    -0.08200
C1479       C  0.01905997  0.59448608  0.59650117     0.05300
C1480       C  0.02625630  0.61568054  0.62145806    -0.03300
Br1481     Br  0.08096266  0.64543944  0.62070259    -0.03000
H1482       H  0.00333927  0.62836383  0.66845075     0.09200
H1483       H  0.97058039  0.55873646  0.57746305     0.07200
Br1484     Br  0.89711806  0.53900886  0.62132509    -0.03400
C1485       C  0.74342723  0.98109079  0.01248179    -0.10000
C1486       C  0.72675684  0.96342285  0.98684754     0.06200
C1487       C  0.68901783  0.97525842  0.96649524    -0.03800
C1488       C  0.66889419  0.50168212  0.97353522    -0.08200
C1489       C  0.69459925  0.52170203  0.99450513     0.05300
C1490       C  0.72659751  0.01146265  0.01650083    -0.03300
Br1491     Br  0.75131991  0.03354315  0.05288419    -0.03000
H1492       H  0.77141319  0.97161978  0.02867992     0.09200
H1493       H  0.63893155  0.51048098  0.95826626     0.07200
Br1494     Br  0.66344060  0.95170534  0.93153161    -0.03400
C1495       C  0.83183702  0.75401932  0.97544702    -0.10000
C1496       C  0.80701191  0.77399212  0.99704061     0.06200
C1497       C  0.76874224  0.76194557  0.01701939    -0.03800
C1498       C  0.75182622  0.73172499  0.01253910    -0.08200
C1499       C  0.77365313  0.71264609  0.98932342     0.05300
C1500       C  0.81561167  0.72335003  0.97163520    -0.03300
Br1501     Br  0.84812673  0.69803890  0.43995275    -0.03000
H1502       H  0.86165596  0.76272016  0.46018635     0.09200
H1503       H  0.72029802  0.72329288  0.02671248     0.07200
Br1504     Br  0.73762735  0.78525125  0.05091774    -0.03400
C1505       C  0.00108534  0.93831678  0.52503423    -0.10000
C1506       C  0.96477262  0.94513050  0.50154121     0.06200
C1507       C  0.96957145  0.97382374  0.48637439    -0.03800
C1508       C  0.99540296  0.50105689  0.49711181    -0.08200
C1509       C  0.04565336  0.98785678  0.51837845     0.05300
C1510       C  0.04102780  0.95895214  0.53343113    -0.03300
Br1511     Br  0.08616773  0.94588583  0.56653727    -0.03000
H1512       H  0.99870013  0.91650732  0.53696493     0.09200
H1513       H  0.98943654  0.52483973  0.49056168     0.07200
Br1514     Br  0.92173961  0.98728896  0.95491274    -0.03400
C1515       C  0.29318545  0.97620976  0.77250805    -0.10000
C1516       C  0.28338419  0.96468042  0.80232114     0.06200
C1517       C  0.29290916  0.98371980  0.82893289    -0.03800
C1518       C  0.30724803  0.01433668  0.82513320    -0.08200
C1519       C  0.30977586  0.52844166  0.78766233     0.05300
C1520       C  0.29825997  0.51065263  0.76063638    -0.03300
Br1521     Br  0.29245876  0.52884864  0.72022658    -0.03000
H1522       H  0.28575292  0.96199614  0.75192994     0.09200
H1523       H  0.31232809  0.02906779  0.84564372     0.07200
Br1524     Br  0.28594369  0.97004777  0.87127752    -0.03400
C1525       C  0.21469073  0.72797264  0.77081569    -0.10000
C1526       C  0.22774978  0.71598198  0.80002739     0.06200
C1527       C  0.21916296  0.73429669  0.82723604    -0.03800
C1528       C  0.20449727  0.76513568  0.82453971    -0.08200
C1529       C  0.19623436  0.77794708  0.79521137     0.05300
C1530       C  0.19864628  0.75877782  0.76823219    -0.03300
Br1531     Br  0.18633575  0.77410212  0.72710932    -0.03000
H1532       H  0.22044014  0.71409331  0.74977592     0.09200
H1533       H  0.20096731  0.77946004  0.84545236     0.07200
Br1534     Br  0.22741881  0.71888641  0.86881737    -0.03400
C1535       C  0.99913732  0.94715415  0.76864345    -0.10000
C1536       C  0.05065846  0.95674972  0.77352916     0.06200
C1537       C  0.06164354  0.98855978  0.77116424    -0.03800
C1538       C  0.02208478  0.00942809  0.76293924    -0.08200
C1539       C  0.97069285  0.99966889  0.75733049     0.05300
C1540       C  0.95945795  0.96801575  0.76105936    -0.03300
Br1541     Br  0.89071814  0.95138804  0.75781373    -0.03000
H1542       H  0.98908158  0.92309011  0.77143124     0.09200
H1543       H  0.03304172  0.53326815  0.76388645     0.07200
Br1544     Br  0.12987551  0.00510403  0.77767895    -0.03400
C1545       C  0.98960631  0.84628969  0.85643182    -0.10000
C1546       C  0.03555547  0.86198669  0.86372747     0.06200
C1547       C  0.04284413  0.87378557  0.89451707    -0.03800
C1548       C  0.00522188  0.86939164  0.91699358    -0.08200
C1549       C  0.95764114  0.85620346  0.90919243     0.05300
C1550       C  0.94978765  0.84438920  0.87860004    -0.03300
Br1551     Br  0.88508837  0.82725854  0.86522954    -0.03000
H1552       H  0.98289494  0.83787137  0.83279985     0.09200
H1553       H  0.01124520  0.87941855  0.94010279     0.07200
Br1554     Br  0.09965788  0.89938836  0.90784490    -0.03400
C1555       C  0.17598484  0.68945579  0.53378355    -0.10000
C1556       C  0.21271507  0.66532725  0.53462962     0.06200
C1557       C  0.26600950  0.67246605  0.53509113    -0.03800
C1558       C  0.28146961  0.70302380  0.53820873    -0.08200
C1559       C  0.24493255  0.72701847  0.53974489     0.05300
C1560       C  0.19188929  0.72036339  0.53607049    -0.03300
Br1561     Br  0.14013619  0.75238226  0.53620194    -0.03000
H1562       H  0.13498481  0.68426007  0.53255982     0.09200
H1563       H  0.32249510  0.70810522  0.53964102     0.07200
Br1564     Br  0.31986306  0.64175690  0.53033202    -0.03400
C1565       C  0.30485222  0.92892344  0.57239215    -0.10000
C1566       C  0.30974048  0.91639864  0.54215734     0.06200
C1567       C  0.30237356  0.93542195  0.51616938    -0.03800
C1568       C  0.28660810  0.96605786  0.52087344    -0.08200
C1569       C  0.27740800  0.97778777  0.55113924     0.05300
C1570       C  0.28908404  0.95943486  0.57711569    -0.03300
Br1571     Br  0.28362106  0.97438072  0.61954436    -0.03000
H1572       H  0.31149707  0.91453041  0.59245979     0.09200
H1573       H  0.26782496  0.47773795  0.49593529     0.07200
Br1574     Br  0.30601661  0.91997411  0.47395610    -0.03400
C1575       C  0.50915018  0.69034344  0.52486745    -0.10000
C1576       C  0.54249333  0.69542574  0.49958425     0.06200
C1577       C  0.53857076  0.72417232  0.98426790    -0.03800
C1578       C  0.50134078  0.74629578  0.49387793    -0.08200
C1579       C  0.46728264  0.74091802  0.51880422     0.05300
C1580       C  0.47231320  0.71250588  0.53463804    -0.03300
Br1581     Br  0.43300502  0.70266345  0.57122044    -0.03000
H1582       H  0.51170709  0.66881373  0.53735752     0.09200
H1583       H  0.49921732  0.76803768  0.98171317     0.07200
Br1584     Br  0.58452113  0.73584066  0.95126517    -0.03400
C1585       C  0.21561916  0.85139068  0.64179338    -0.10000
C1586       C  0.25861357  0.83096636  0.64107827     0.06200
C1587       C  0.28125271  0.82233504  0.66956992    -0.03800
C1588       C  0.26148411  0.83411046  0.69752834    -0.08200
C1589       C  0.21866998  0.85463156  0.69871724     0.05300
C1590       C  0.19566302  0.86331987  0.67026363    -0.03300
Br1591     Br  0.13933065  0.89237667  0.66865440    -0.03000
H1592       H  0.19815152  0.85865148  0.62009467     0.09200
H1593       H  0.27974081  0.82630440  0.71879333     0.07200
Br1594     Br  0.33771508  0.79319195  0.67281988    -0.03400
C1595       C  0.30403170  0.86298966  0.89898186    -0.10000
C1596       C  0.25179747  0.85784961  0.89111361     0.06200
C1597       C  0.22290194  0.83676453  0.90865747    -0.03800
C1598       C  0.24487796  0.82371862  0.93516707    -0.08200
C1599       C  0.29583470  0.83063154  0.94426024     0.05300
C1600       C  0.32626145  0.84952574  0.92526078    -0.03300
Br1601     Br  0.39617084  0.86065048  0.93586466    -0.03000
H1602       H  0.32724254  0.87849664  0.88526400     0.09200
H1603       H  0.22133155  0.80895034  0.94952298     0.07200
Br1604     Br  0.15454409  0.82355403  0.89715419    -0.03400
C1605       C  0.74256329  0.71094289  0.71142089    -0.10000
C1606       C  0.76747768  0.73393186  0.72911439     0.06200
C1607       C  0.81239851  0.72625450  0.74612280    -0.03800
C1608       C  0.82983433  0.69540582  0.74625782    -0.08200
C1609       C  0.80299998  0.67210482  0.72956566     0.05300
C1610       C  0.75975790  0.68064268  0.71110635    -0.03300
Br1611     Br  0.72064871  0.65326892  0.68423363    -0.03000
H1612       H  0.70847451  0.71644948  0.69775435     0.09200
H1613       H  0.86375869  0.68962029  0.75985961     0.07200
Br1614     Br  0.85231263  0.75686151  0.76817779    -0.03400
C1615       C  0.68667747  0.94225719  0.71661920    -0.10000
C1616       C  0.70209578  0.92481153  0.74223315     0.06200
C1617       C  0.73373262  0.93810350  0.76558022    -0.03800
C1618       C  0.74994762  0.96862995  0.76288606    -0.08200
C1619       C  0.73709256  0.98552282  0.73635518     0.05300
C1620       C  0.70466127  0.97234781  0.71325419    -0.03300
Br1621     Br  0.68483354  0.49405118  0.67717233    -0.03000
H1622       H  0.66298719  0.93187408  0.69838286     0.09200
H1623       H  0.77577068  0.97840085  0.78038077     0.07200
Br1624     Br  0.75927095  0.91468708  0.80006490    -0.03400
C1625       C  0.54638847  0.71949248  0.74293268    -0.10000
C1626       C  0.53965106  0.75044624  0.75281767     0.06200
C1627       C  0.49455842  0.75788283  0.77053135    -0.03800
C1628       C  0.45792963  0.73499126  0.77719224    -0.08200
C1629       C  0.46454224  0.70401496  0.76722171     0.05300
C1630       C  0.51009306  0.69651043  0.74993898    -0.03300
Br1631     Br  0.52715283  0.65545882  0.73526305    -0.03000
H1632       H  0.58028184  0.71293332  0.72941003     0.09200
H1633       H  0.42420163  0.74157301  0.79085680     0.07200
Br1634     Br  0.48031017  0.79836650  0.78784758    -0.03400
C1635       C  0.71528161  0.81808685  0.85275272    -0.10000
C1636       C  0.68431623  0.83884785  0.83604455     0.06200
C1637       C  0.67030237  0.86734163  0.85014846    -0.03800
C1638       C  0.69111822  0.87578532  0.87924119    -0.08200
C1639       C  0.72370957  0.85555726  0.89549190     0.05300
C1640       C  0.73362767  0.82581786  0.88269907    -0.03300
Br1641     Br  0.77517873  0.79580565  0.90401451    -0.03000
H1642       H  0.72672537  0.79621352  0.84200446     0.09200
H1643       H  0.68249026  0.89851310  0.88896630     0.07200
Br1644     Br  0.62651077  0.89660335  0.82940967    -0.03400
C1645       C  0.72298401  0.86345148  0.62478395    -0.10000
C1646       C  0.75561694  0.84528332  0.64334449     0.06200
C1647       C  0.80720845  0.84015337  0.63360335    -0.03800
C1648       C  0.82348827  0.85079119  0.60447679    -0.08200
C1649       C  0.78948024  0.86696715  0.58466464     0.05300
C1650       C  0.73919965  0.87451286  0.59598417    -0.03300
Br1651     Br  0.68863206  0.89835704  0.57349846    -0.03000
H1652       H  0.68371264  0.86851415  0.63243736     0.09200
H1653       H  0.86239620  0.84503441  0.59672172     0.07200
Br1654     Br  0.85592493  0.81657495  0.65750356    -0.03400
C1655       C  0.50052040  0.86222355  0.65634161    -0.10000
C1656       C  0.54672125  0.84484459  0.65458071     0.06200
C1657       C  0.56018936  0.83015310  0.62576624    -0.03800
C1658       C  0.52679237  0.83158095  0.60047452    -0.08200
C1659       C  0.47826337  0.84538023  0.60353340     0.05300
C1660       C  0.46553764  0.86191846  0.63112677    -0.03300
Br1661     Br  0.39830703  0.88045603  0.63663882    -0.03000
H1662       H  0.48911524  0.87317441  0.67824346     0.09200
H1663       H  0.53609548  0.81844426  0.57937235     0.07200
Br1664     Br  0.61879575  0.80327466  0.61933842    -0.03400
loop_ 
_geom_bond_atom_site_label_1 
_geom_bond_atom_site_label_2 
_geom_bond_distance 
_geom_bond_site_symmetry_2 
_ccdc_geom_bond_type 
O1          Cr19   2.019       .  S
O1            C9   1.267       .  A
O2          Cr19   1.959       .  S
O2            C3   1.256       .  A
C3            O4   1.266       .  A
C3          C368   1.461       .  S
O4          Cr20   2.012       .  S
O5          Cr20   1.997       .  S
O5            C6   1.256       .  A
C6            O7   1.259       .  A
C6          C408   1.467       .  S
O7          Cr21   1.981       .  S
O8          Cr21   1.972       .  S
O8            C9   1.262       .  A
C9          C398   1.490       .  S
O10         Cr19   1.977       .  S
O10          C18   1.257       .  A
O11         Cr19   1.999       .  S
O11          C12   1.264       .  A
C12          O13   1.261       .  A
C12         C388   1.470       .  S
O13         Cr20   1.983       .  S
O14         Cr20   2.036       .  S
O14          C15   1.274       .  A
C15          O16   1.267       .  A
C15         C378   1.506       .  S
O16         Cr21   1.983       .  S
O17         Cr21   1.996       .  S
O17          C18   1.261       .  A
C18         C358   1.468       .  S
Cr19         O22   1.772       .  S
Cr20         O22   1.775       .  S
Cr21         O22   1.766       .  S
O23         Cr41   2.011       .  S
O23          C31   1.263       .  A
O24         Cr41   1.964       .  S
O24          C25   1.258       .  A
C25          O26   1.264       .  A
C25         C318   1.461       .  S
O26         Cr42   2.006       .  S
O27         Cr42   2.017       .  S
O27          C28   1.263       .  A
C28          O29   1.254       .  A
C28         C411   1.485       .  S
O29         Cr43   1.977       .  S
O30         Cr43   1.982       .  S
O30          C31   1.260       .  A
C31         C338   1.478       .  S
O32         Cr41   1.989       .  S
O32          C40   1.260       .  A
O33         Cr41   1.983   1_556  S
O33         C450   1.263       .  A
C34         O449   1.263       .  A
C34         O451   1.268       .  A
C34         C351   1.484       .  S
O35         Cr42   2.004   1_556  S
O35         C450   1.268       .  A
O36         Cr42   2.035       .  S
O36          C37   1.275       .  A
C37          O38   1.266       .  A
C37         C331   1.505       .  S
O38         Cr43   1.988       .  S
O39         Cr43   1.981       .  S
O39          C40   1.258       .  A
C40         C311   1.460       .  S
Cr41         O44   1.776       .  S
Cr42         O44   1.781       .  S
Cr43         O44   1.766       .  S
O45         Cr63   2.013       .  S
O45          C53   1.264       .  A
O46         Cr63   1.969       .  S
O46          C47   1.263       .  A
C47          O48   1.268       .  A
C47         C281   1.480       .  S
O48         Cr64   2.020       .  S
O49         Cr64   2.011       .  S
O49          C50   1.262       .  A
C50          O51   1.250       .  A
C50         C298   1.476       .  S
O51         Cr65   1.967       .  S
O52         Cr65   1.991       .  S
O52          C53   1.262       .  A
C53         C348   1.486       .  S
O54         Cr63   2.002       .  S
O54          C62   1.265       .  A
O55         Cr63   1.986       .  S
O55          C56   1.260       .  A
C56          O57   1.266       .  A
C56         C341   1.483       .  S
O57         Cr64   2.009       .  S
O58         Cr64   2.031       .  S
O58          C59   1.278       .  A
C59          O60   1.269       .  A
C59         C288   1.508       .  S
O60         Cr65   1.991       .  S
O61         Cr65   1.979       .  S
O61          C62   1.258       .  A
C62         C268   1.477       .  S
Cr63         O66   1.777       .  S
Cr64         O66   1.778       .  S
Cr65         O66   1.769       .  S
O67         Cr85   1.981       .  S
O67          C75   1.258       .  A
O68         Cr85   1.995       .  S
O68          C69   1.263       .  A
C69          O70   1.260       .  A
C69         C248   1.466       .  S
O70         Cr86   1.979       .  S
O71         Cr86   2.016       .  S
O71          C72   1.272       .  A
C72          O73   1.258       .  A
C72         C301   1.478       .  S
O73         Cr87   1.970       .  S
O74         Cr87   2.012       .  S
O74          C75   1.266       .  A
C75         C391   1.476       .  S
O76         Cr85   2.012       .  S
O76          C84   1.264       .  A
O77        Cr501   1.963   1_554  S
O77          C78   1.255       .  A
C78          O79   1.272       .  A
C78         C401   1.493       .  S
O79        Cr502   2.036   1_554  S
O80        Cr502   1.995   1_554  S
O80         C497   1.266   1_554  A
C81          O82   1.266       .  A
C81         O496   1.266       .  A
C81         C674   1.490       .  S
O82         Cr87   2.013       .  S
O83         Cr87   1.955       .  S
O83          C84   1.256       .  A
C84         C238   1.459       .  S
Cr85        O493   1.963       .  S
Cr85         O88   1.766       .  S
Cr86        O495   2.036       .  S
Cr86        O496   1.995       .  S
Cr86         O88   1.768       .  S
Cr87         O88   1.762       .  S
O89        Cr107   1.989       .  S
O89          C97   1.259       .  A
O90        Cr107   1.972       .  S
O90          C91   1.259       .  A
C91          O92   1.257       .  A
C91         C231   1.464       .  S
O92        Cr108   1.994       .  S
O93        Cr108   2.014       .  S
O93          C94   1.268       .  A
C94          O95   1.261       .  A
C94         C308   1.467       .  S
O95        Cr109   1.968       .  S
O96        Cr109   1.989       .  S
O96          C97   1.257       .  A
C97         C211   1.486       .  S
O98        Cr107   1.998       .  S
O98         C106   1.264       .  A
O99        Cr107   1.984       .  S
O99         C100   1.264       .  A
C100        O101   1.278       .  A
C100       C1093   1.513   1_545  S
O101       Cr108   2.045       .  S
O102       Cr108   2.011   1_556  S
O102        C519   1.268       .  A
C103        O518   1.268       .  A
C103        O520   1.256       .  A
C103        C218   1.488       .  S
O104       Cr109   1.949       .  S
O104        C519   1.256   1_554  A
O105       Cr109   1.964       .  S
O105        C106   1.258       .  A
C106       C1153   1.465   1_545  S
Cr107       O110   1.764       .  S
Cr108       O110   1.780       .  S
Cr109       O110   1.765       .  S
O111       Cr129   1.990       .  S
O111        C119   1.263       .  A
O112       Cr129   1.965       .  S
O112        C113   1.246       .  A
C113        O114   1.263       .  A
C113        C228   1.482       .  S
O114       Cr130   2.029       .  S
O115       Cr130   2.001       .  S
O115        C116   1.262       .  A
C116        O117   1.256       .  A
C116        C361   1.459       .  S
O117       Cr131   1.963       .  S
O118       Cr131   2.026       .  S
O118        C119   1.270       .  A
C119        C201   1.488       .  S
O120       Cr129   1.990       .  S
O120        C128   1.257       .  A
O121       Cr129   1.987       .  S
O121        C122   1.271       .  A
C122        O123   1.277       .  A
C122       C1123   1.500   1_545  S
O123       Cr130   2.031       .  S
O124       Cr130   1.998       .  S
O124        C125   1.267       .  A
C125        O126   1.265       .  A
C125        C188   1.481       .  S
O126       Cr131   1.992       .  S
O127       Cr131   1.982       .  S
O127        C128   1.255       .  A
C128       C1203   1.463   1_545  S
Cr129       O132   1.766       .  S
Cr130       O132   1.776       .  S
Cr131       O132   1.771       .  S
O133       Cr151   1.982       .  S
O133        C141   1.260       .  A
O134       Cr151   1.980       .  S
O134        C135   1.257       .  A
C135        O136   1.258       .  A
C135        C178   1.462       .  S
O136       Cr152   1.992       .  S
O137       Cr152   2.009       .  S
O137        C138   1.266       .  A
C138        O139   1.261       .  A
C138        C271   1.466       .  S
O139       Cr153   1.966       .  S
O140       Cr153   1.986       .  S
O140        C141   1.257       .  A
C141        C221   1.473       .  S
O142       Cr151   1.994       .  S
O142        C150   1.264       .  A
O143       Cr151   1.982       .  S
O143        C144   1.266       .  A
C144        O145   1.271       .  A
C144        C381   1.504       .  S
O145       Cr152   2.026       .  S
O146       Cr152   1.995       .  S
O146        C147   1.264       .  A
C147        O148   1.258       .  A
C147        C208   1.482       .  S
O148       Cr153   1.967       .  S
O149       Cr153   1.986       .  S
O149        C150   1.264       .  A
C150        C278   1.483       .  S
Cr151       O154   1.762       .  S
Cr152       O154   1.775       .  S
Cr153       O154   1.771       .  S
O155       Cr173   2.025       .  S
O155        C163   1.268       .  A
O156       Cr173   1.948       .  S
O156        C157   1.251       .  A
C157        O158   1.274       .  A
C157        C181   1.488       .  S
O158       Cr174   2.032       .  S
O159       Cr174   1.978       .  S
O159        C160   1.259       .  A
C160        O161   1.259       .  A
C160        C241   1.466       .  S
O161       Cr175   1.983       .  S
O162       Cr175   1.983       .  S
O162        C163   1.259       .  A
C163        C191   1.481       .  S
O164       Cr173   1.959       .  S
O164        C172   1.256       .  A
O165       Cr173   2.025       .  S
O165        C166   1.268       .  A
C166        O583   1.263       .  A
C166        C744   1.502       .  S
O167       Cr590   1.988   1_554  S
O167        C582   1.263   1_554  A
O168       Cr590   2.034   1_554  S
O168        C169   1.273       .  A
C169        O170   1.265       .  A
C169        C198   1.501       .  S
O170       Cr591   1.974   1_554  S
O171       Cr175   2.013       .  S
O171        C172   1.264       .  A
C172        C251   1.457       .  S
Cr173       O176   1.762       .  S
Cr174       O583   1.988       .  S
Cr174       O584   2.034       .  S
Cr174       O176   1.771       .  S
Cr175       O586   1.974       .  S
Cr175       O176   1.767       .  S
C177        C178   1.395       .  A
C177        C182   1.395       .  A
C177        H184   1.084       .  S
C178        C179   1.404       .  A
C179        C180   1.399       .  A
C179       Br186   1.917       .  S
C180        C181   1.407       .  A
C180        H185   1.083       .  S
C181        C182   1.425       .  A
C182       Br183   1.928       .  S
C187        C188   1.405       .  A
C187        C192   1.401       .  A
C187        H194   1.084       .  S
C188        C189   1.411       .  A
C189        C190   1.405       .  A
C189       Br196   1.919       .  S
C190        C191   1.404       .  A
C190        H195   1.081       .  S
C191        C192   1.410       .  A
C192       Br193   1.921       .  S
C197        C198   1.408       .  A
C197        C202   1.398       .  A
C197        H204   1.084       .  S
C198        C199   1.422       .  A
C199        C200   1.408       .  A
C199       Br206   1.920       .  S
C200        C201   1.404       .  A
C200        H205   1.084       .  S
C201        C202   1.410       .  A
C202       Br203   1.916       .  S
C207        C208   1.408       .  A
C207        C212   1.392       .  A
C207        H214   1.083       .  S
C208        C209   1.409       .  A
C209        C210   1.401       .  A
C209       Br216   1.921       .  S
C210        C211   1.413       .  A
C210        H215   1.082       .  S
C211        C212   1.411       .  A
C212       Br213   1.922       .  S
C217        C218   1.413       .  A
C217        C222   1.384       .  A
C217        H224   1.079       .  S
C218        C219   1.408       .  A
C219        C220   1.407       .  A
C219       Br226   1.918       .  S
C220        C221   1.413       .  A
C220        H225   1.084       .  S
C221        C222   1.401       .  A
C222       Br223   1.925       .  S
C227        C228   1.408       .  A
C227        C232   1.409   1_655  A
C227        H234   1.083   1_655  S
C228        C229   1.422       .  A
C229        C230   1.384       .  A
C229       Br236   1.926       .  S
C230        C231   1.391   1_655  A
C230        H235   1.085       .  S
C231        C232   1.409       .  A
C232       Br233   1.918       .  S
C237        C238   1.397       .  A
C237        C242   1.390       .  A
C237        H244   1.084       .  S
C238        C239   1.405       .  A
C239       C1072   1.399       .  A
C239       Br246   1.917       .  S
C240        C241   1.403       .  A
C240       C1071   1.397   1_545  A
C240        H245   1.083       .  S
C241       C1074   1.414       .  A
C242       C1073   1.415       .  A
C242       Br243   1.926       .  S
C247        C248   1.402       .  A
C247        C252   1.397       .  A
C247        H670   1.084       .  S
C248        C249   1.411       .  A
C249        C250   1.393       .  A
C249       Br256   1.921       .  S
C250        C251   1.397       .  A
C250        H255   1.084       .  S
C251        C252   1.406       .  A
C252       Br669   1.917       .  S
Br253       C668   1.917       .  S
H254        C663   1.084       .  S
C257        C258   1.400   1_454  A
C257        C262   1.403       .  A
C257        H264   1.083       .  S
C258        C497   1.490       .  S
C258        C259   1.413       .  A
C259       C1092   1.409       .  A
C259       Br682   1.920       .  S
C260       C1091   1.409   1_455  A
C260       C1093   1.409   1_556  A
C260        H265   1.083   1_565  S
C261        C932   1.507       .  S
C261        C262   1.425       .  A
C261       C1092   1.411   1_454  A
C262       Br263   1.925       .  S
Br266       C675   1.920       .  S
C267        C268   1.404       .  A
C267       C1104   1.402       .  A
C267        H274   1.083       .  S
C268        C269   1.417       .  A
C269        C270   1.393       .  A
C269       Br276   1.925       .  S
C270       C1103   1.396       .  A
C270        H275   1.084       .  S
C271        C272   1.410       .  A
C271       C1102   1.398       .  A
C272       C1099   1.399   1_545  A
C272       Br273   1.920       .  S
C277        C278   1.406       .  A
C277        C282   1.404       .  A
C277        H284   1.083       .  S
C278        C279   1.415       .  A
C279        C280   1.391       .  A
C279       Br286   1.926       .  S
C280        C281   1.400       .  A
C280        H285   1.081       .  S
C281        C282   1.413       .  A
C282       Br283   1.915       .  S
C287        C288   1.409       .  A
C287        C292   1.405   1_455  A
C287        H294   1.084   1_455  S
C288        C289   1.419       .  A
C289        C290   1.411       .  A
C289       Br296   1.923       .  S
C290        C291   1.412   1_455  A
C290       H1127   1.084       .  S
C291        C954   1.510       .  S
C291        C292   1.419       .  A
C292       Br293   1.924       .  S
H295       C1122   1.084       .  S
C297        C298   1.403   1_655  A
C297        C302   1.405       .  A
C297        H304   1.084       .  S
C298        C299   1.416       .  A
C299        C300   1.389       .  A
C299       Br306   1.922       .  S
C300        C301   1.398   1_455  A
C300        H305   1.084       .  S
C301        C302   1.415       .  A
C302       Br303   1.917       .  S
C307        C308   1.405       .  A
C307        C312   1.404       .  A
C307        H314   1.084       .  S
C308        C309   1.409       .  A
C309        C310   1.389       .  A
C309       Br316   1.921       .  S
C310        C311   1.398       .  A
C310        H315   1.084       .  S
C311        C312   1.407       .  A
C312       Br313   1.917       .  S
C317        C318   1.398       .  A
C317        C322   1.393       .  A
C317        H324   1.084       .  S
C318        C319   1.408       .  A
C319        C320   1.398       .  A
C319       Br326   1.919   1_554  S
C320        C321   1.404       .  A
C320       H1157   1.083   1_554  S
C321        C938   1.470       .  S
C321        C322   1.412       .  A
C322       Br323   1.922       .  S
H325       C1152   1.083       .  S
C327        C328   1.407       .  A
C327        C332   1.406       .  A
C327        H334   1.085       .  S
C328        C582   1.502   1_554  S
C328        C745   1.416   1_554  A
C329        C744   1.416       .  A
C329        C746   1.408       .  A
C329       Br336   1.921       .  S
C330        C331   1.410   1_556  A
C330        C745   1.408       .  A
C330        H751   1.084       .  S
C331        C332   1.419       .  A
C332       Br333   1.922       .  S
H335        C746   1.084       .  S
C337        C338   1.410       .  A
C337        C342   1.411       .  A
C337        H344   1.084       .  S
C338        C339   1.403       .  A
C339        C340   1.395       .  A
C339       Br346   1.921       .  S
C340        C341   1.404       .  A
C340        H345   1.081       .  S
C341        C342   1.409       .  A
C342       Br343   1.916       .  S
C347        C348   1.408       .  A
C347        C352   1.408       .  A
C347        H354   1.084       .  S
C348        C349   1.411       .  A
C349        C350   1.396       .  A
C349       Br356   1.921       .  S
C350        C351   1.405       .  A
C350        H355   1.084       .  S
C351        C352   1.412       .  A
C352       Br353   1.918       .  S
C357        C358   1.402       .  A
C357        C362   1.396       .  A
C357        H364   1.086       .  S
C358        C359   1.412       .  A
C359        C360   1.394       .  A
C359       Br366   1.921       .  S
C360        C361   1.397       .  A
C360        H365   1.087       .  S
C361        C362   1.407       .  A
C362       Br363   1.917       .  S
C367        C368   1.399       .  A
C367        C372   1.397       .  A
C367        H374   1.084       .  S
C368        C369   1.408       .  A
C369        C370   1.396       .  A
C369       Br376   1.919       .  S
C370        C371   1.400       .  A
C370        H375   1.084       .  S
C371        C960   1.464       .  S
C371        C372   1.410       .  A
C372      Br1205   1.920       .  S
Br373      C1204   1.920       .  S
C377        C378   1.410       .  A
C377        C382   1.405       .  A
C377        H384   1.083       .  S
C378        C379   1.419       .  A
C379        C380   1.406       .  A
C379       Br386   1.922       .  S
C380        C381   1.409       .  A
C380        H385   1.083       .  S
C381        C382   1.418       .  A
C382       Br383   1.923       .  S
C387        C388   1.402       .  A
C387        C392   1.403       .  A
C387        H394   1.083       .  S
C388        C389   1.408       .  A
C389        C390   1.397       .  A
C389       Br396   1.919       .  S
C390        C391   1.402       .  A
C390        H395   1.082       .  S
C391        C392   1.412       .  A
C392       Br393   1.918       .  S
C397        C398   1.402       .  A
C397        C402   1.394       .  A
C397        H404   1.080       .  S
C398        C399   1.415       .  A
C399        C400   1.407       .  A
C399       Br406   1.919       .  S
C400        C401   1.409       .  A
C400        H405   1.083       .  S
C401        C402   1.419       .  A
C402       Br403   1.927       .  S
C407        C408   1.391       .  A
C407        C412   1.386       .  A
C407        H414   1.085       .  S
C408        C409   1.408       .  A
C409        C410   1.410       .  A
C409       Br416   1.914       .  S
C410        C411   1.409       .  A
C410        H415   1.083       .  S
C411        C412   1.418       .  A
C412       Br413   1.915       .  S
O417       Cr435   2.019       .  S
O417        C425   1.267       .  A
O418       Cr435   1.959       .  S
O418        C419   1.256       .  A
C419        O420   1.266       .  A
C419        C784   1.460       .  S
O420       Cr436   2.012       .  S
O421       Cr436   1.997       .  S
O421        C422   1.256       .  A
C422        O423   1.259       .  A
C422        C824   1.467       .  S
O423       Cr437   1.981       .  S
O424       Cr437   1.972       .  S
O424        C425   1.262       .  A
C425        C814   1.490       .  S
O426       Cr435   1.977       .  S
O426        C434   1.257       .  A
O427       Cr435   1.999       .  S
O427        C428   1.264       .  A
C428        O429   1.261       .  A
C428        C804   1.470       .  S
O429       Cr436   1.983       .  S
O430       Cr436   2.036       .  S
O430        C431   1.274       .  A
C431        O432   1.267       .  A
C431        C794   1.506       .  S
O432       Cr437   1.983       .  S
O433       Cr437   1.996       .  S
O433        C434   1.261       .  A
C434        C774   1.468       .  S
Cr435       O438   1.772       .  S
Cr436       O438   1.775       .  S
Cr437       O438   1.766       .  S
O439       Cr457   2.011       .  S
O439        C447   1.263       .  A
O440       Cr457   1.964       .  S
O440        C441   1.258       .  A
C441        O442   1.264       .  A
C441        C734   1.461       .  S
O442       Cr458   2.006       .  S
O443       Cr458   2.017       .  S
O443        C444   1.263       .  A
C444        O445   1.254       .  A
C444        C827   1.485       .  S
O445       Cr459   1.977       .  S
O446       Cr459   1.982       .  S
O446        C447   1.260       .  A
C447        C754   1.479       .  S
O448       Cr457   1.989       .  S
O448        C456   1.260       .  A
O449       Cr457   1.983       .  S
C450        C767   1.484       .  S
O451       Cr458   2.004       .  S
O452       Cr458   2.035       .  S
O452        C453   1.275       .  A
C453        O454   1.266       .  A
C453        C747   1.505       .  S
O454       Cr459   1.988       .  S
O455       Cr459   1.981       .  S
O455        C456   1.258       .  A
C456        C727   1.460       .  S
Cr457       O460   1.776       .  S
Cr458       O460   1.781       .  S
Cr459       O460   1.766       .  S
O461       Cr479   2.013       .  S
O461        C469   1.264       .  A
O462       Cr479   1.969       .  S
O462        C463   1.263       .  A
C463        O464   1.268       .  A
C463        C697   1.480       .  S
O464       Cr480   2.020       .  S
O465       Cr480   2.011       .  S
O465        C466   1.262       .  A
C466        O467   1.250       .  A
C466        C714   1.476       .  S
O467       Cr481   1.967       .  S
O468       Cr481   1.991       .  S
O468        C469   1.262       .  A
C469        C764   1.486       .  S
O470       Cr479   2.002       .  S
O470        C478   1.265       .  A
O471       Cr479   1.986       .  S
O471        C472   1.260       .  A
C472        O473   1.266       .  A
C472        C757   1.483       .  S
O473       Cr480   2.009       .  S
O474       Cr480   2.031       .  S
O474        C475   1.278       .  A
C475        O476   1.269       .  A
C475        C704   1.508       .  S
O476       Cr481   1.991       .  S
O477       Cr481   1.979       .  S
O477        C478   1.258       .  A
C478        C684   1.477       .  S
Cr479       O482   1.777       .  S
Cr480       O482   1.778       .  S
Cr481       O482   1.769       .  S
O483       Cr501   1.981       .  S
O483        C491   1.258       .  A
O484       Cr501   1.995   1_554  S
O484        C485   1.263   1_554  A
C485        O486   1.260       .  A
C485        C664   1.466       .  S
O486       Cr502   1.979       .  S
O487       Cr502   2.016       .  S
O487        C488   1.272       .  A
C488        O489   1.258       .  A
C488        C717   1.478       .  S
O489       Cr503   1.970       .  S
O490       Cr503   2.012       .  S
O490        C491   1.266       .  A
C491        C807   1.476       .  S
O492       Cr501   2.012       .  S
O492        C500   1.264       .  A
O493        C494   1.255       .  A
C494        O495   1.272       .  A
C494        C817   1.493       .  S
C497        O498   1.266       .  A
O498       Cr503   2.013       .  S
O499       Cr503   1.955       .  S
O499        C500   1.256       .  A
C500        C654   1.459       .  S
Cr501       O504   1.766       .  S
Cr502       O504   1.768       .  S
Cr503       O504   1.762       .  S
O505       Cr523   1.989       .  S
O505        C513   1.259       .  A
O506       Cr523   1.972       .  S
O506        C507   1.259       .  A
C507        O508   1.257       .  A
C507        C647   1.464       .  S
O508       Cr524   1.994       .  S
O509       Cr524   2.014       .  S
O509        C510   1.268       .  A
C510        O511   1.261       .  A
C510        C724   1.467       .  S
O511       Cr525   1.968       .  S
O512       Cr525   1.989       .  S
O512        C513   1.257       .  A
C513        C627   1.486       .  S
O514       Cr523   1.998       .  S
O514        C522   1.264       .  A
O515       Cr523   1.984       .  S
O515        C516   1.264       .  A
C516        O517   1.278       .  A
C516       C1509   1.513   1_545  S
O517       Cr524   2.045       .  S
O518       Cr524   2.011       .  S
C519        C634   1.488       .  S
O520       Cr525   1.949       .  S
O521       Cr525   1.964       .  S
O521        C522   1.258       .  A
C522       C1569   1.465   1_545  S
Cr523       O526   1.764       .  S
Cr524       O526   1.780       .  S
Cr525       O526   1.765       .  S
O527       Cr545   1.990       .  S
O527        C535   1.263       .  A
O528       Cr545   1.965       .  S
O528        C529   1.246       .  A
C529        O530   1.263       .  A
C529        C644   1.482       .  S
O530       Cr546   2.029       .  S
O531       Cr546   2.001       .  S
O531        C532   1.262       .  A
C532        O533   1.256       .  A
C532        C777   1.459       .  S
O533       Cr547   1.963       .  S
O534       Cr547   2.026       .  S
O534        C535   1.270       .  A
C535        C617   1.488       .  S
O536       Cr545   1.990       .  S
O536        C544   1.257       .  A
O537       Cr545   1.987       .  S
O537        C538   1.271       .  A
C538        O539   1.277       .  A
C538       C1539   1.500   1_545  S
O539       Cr546   2.031       .  S
O540       Cr546   1.998       .  S
O540        C541   1.267       .  A
C541        O542   1.265       .  A
C541        C604   1.481       .  S
O542       Cr547   1.992       .  S
O543       Cr547   1.982       .  S
O543        C544   1.255       .  A
C544       C1619   1.463   1_545  S
Cr545       O548   1.766       .  S
Cr546       O548   1.776       .  S
Cr547       O548   1.771       .  S
O549       Cr567   1.982       .  S
O549        C557   1.260       .  A
O550       Cr567   1.980       .  S
O550        C551   1.257       .  A
C551        O552   1.258       .  A
C551        C594   1.462       .  S
O552       Cr568   1.992       .  S
O553       Cr568   2.009       .  S
O553        C554   1.266       .  A
C554        O555   1.261       .  A
C554        C687   1.466       .  S
O555       Cr569   1.966       .  S
O556       Cr569   1.986       .  S
O556        C557   1.257       .  A
C557        C637   1.473       .  S
O558       Cr567   1.994       .  S
O558        C566   1.264       .  A
O559       Cr567   1.982       .  S
O559        C560   1.266       .  A
C560        O561   1.271       .  A
C560        C797   1.504       .  S
O561       Cr568   2.026       .  S
O562       Cr568   1.995       .  S
O562        C563   1.264       .  A
C563        O564   1.258       .  A
C563        C624   1.482       .  S
O564       Cr569   1.967       .  S
O565       Cr569   1.986       .  S
O565        C566   1.264       .  A
C566        C694   1.483       .  S
Cr567       O570   1.762       .  S
Cr568       O570   1.775       .  S
Cr569       O570   1.771       .  S
O571       Cr589   2.025       .  S
O571        C579   1.268       .  A
O572       Cr589   1.948       .  S
O572        C573   1.251       .  A
C573        O574   1.274       .  A
C573        C597   1.488       .  S
O574       Cr590   2.032       .  S
O575       Cr590   1.978       .  S
O575        C576   1.259       .  A
C576        O577   1.259   1_556  A
C576        C657   1.466       .  S
O577       Cr591   1.983   1_554  S
O578       Cr591   1.983       .  S
O578        C579   1.259       .  A
C579        C607   1.481       .  S
O580       Cr589   1.959       .  S
O580        C588   1.256       .  A
O581       Cr589   2.025       .  S
O581        C582   1.268       .  A
O584        C585   1.273       .  A
C585        O586   1.265       .  A
C585        C614   1.501       .  S
O587       Cr591   2.013       .  S
O587        C588   1.264       .  A
C588        C667   1.457       .  S
Cr589       O592   1.762       .  S
Cr590       O592   1.771       .  S
Cr591       O592   1.767       .  S
C593        C594   1.395       .  A
C593        C598   1.395       .  A
C593        H600   1.084       .  S
C594        C595   1.404       .  A
C595        C596   1.399       .  A
C595       Br602   1.917       .  S
C596        C597   1.407       .  A
C596        H601   1.083       .  S
C597        C598   1.425       .  A
C598       Br599   1.928       .  S
C603        C604   1.405       .  A
C603        C608   1.401       .  A
C603        H610   1.084       .  S
C604        C605   1.411       .  A
C605        C606   1.405       .  A
C605       Br612   1.919       .  S
C606        C607   1.404       .  A
C606        H611   1.081       .  S
C607        C608   1.410       .  A
C608       Br609   1.921       .  S
C613        C614   1.408       .  A
C613        C618   1.398       .  A
C613        H620   1.084       .  S
C614        C615   1.422       .  A
C615        C616   1.408       .  A
C615       Br622   1.920       .  S
C616        C617   1.404       .  A
C616        H621   1.084       .  S
C617        C618   1.410       .  A
C618       Br619   1.916       .  S
C623        C624   1.408       .  A
C623        C628   1.392       .  A
C623        H630   1.083       .  S
C624        C625   1.409       .  A
C625        C626   1.401       .  A
C625       Br632   1.921       .  S
C626        C627   1.413       .  A
C626        H631   1.082       .  S
C627        C628   1.411       .  A
C628       Br629   1.922       .  S
C633        C634   1.413       .  A
C633        C638   1.384       .  A
C633        H640   1.079       .  S
C634        C635   1.408       .  A
C635        C636   1.407       .  A
C635       Br642   1.918       .  S
C636        C637   1.413       .  A
C636        H641   1.084       .  S
C637        C638   1.401       .  A
C638       Br639   1.925       .  S
C643        C644   1.408       .  A
C643        C648   1.409   1_655  A
C643        H650   1.083   1_655  S
C644        C645   1.422       .  A
C645        C646   1.384       .  A
C645       Br652   1.926       .  S
C646        C647   1.391   1_655  A
C646        H651   1.085       .  S
C647        C648   1.409       .  A
C648       Br649   1.918       .  S
C653        C654   1.397   1_554  A
C653        C658   1.390       .  A
C653        H660   1.084       .  S
C654        C655   1.405       .  A
C655       C1488   1.399       .  A
C655       Br662   1.917       .  S
C656       C1487   1.397   1_545  A
C656        C657   1.403       .  A
C656        H661   1.083       .  S
C657       C1490   1.414   1_556  A
C658       C1489   1.415   1_554  A
C658       Br659   1.926       .  S
C663        C664   1.402       .  A
C663        C668   1.397       .  A
C664        C665   1.411   1_556  A
C665        C666   1.393       .  A
C665       Br672   1.921       .  S
C666        C667   1.397   1_554  A
C666        H671   1.084       .  S
C667        C668   1.407       .  A
C673        C674   1.400   1_455  A
C673        C678   1.403       .  A
C673        H680   1.083       .  S
C674        C675   1.413       .  A
C675       C1508   1.409       .  A
C676       C1507   1.409   1_455  A
C676       C1509   1.409       .  A
C676        H681   1.083   1_565  S
C677       C1348   1.507       .  S
C677       C1508   1.411   1_455  A
C677        C678   1.425       .  A
C678       Br679   1.925       .  S
C683        C684   1.404       .  A
C683       C1520   1.402       .  A
C683        H690   1.083       .  S
C684        C685   1.417       .  A
C685        C686   1.393       .  A
C685       Br692   1.925       .  S
C686       C1519   1.396       .  A
C686        H691   1.084       .  S
C687       C1518   1.398       .  A
C687        C688   1.410       .  A
C688       C1515   1.399   1_545  A
C688       Br689   1.920       .  S
C693        C694   1.406       .  A
C693        C698   1.404       .  A
C693        H700   1.083       .  S
C694        C695   1.415       .  A
C695        C696   1.391       .  A
C695       Br702   1.926       .  S
C696        C697   1.400       .  A
C696        H701   1.081       .  S
C697        C698   1.413       .  A
C698       Br699   1.915       .  S
C703        C704   1.409       .  A
C703        C708   1.405   1_455  A
C703        H710   1.084   1_455  S
C704        C705   1.419       .  A
C705        C706   1.411       .  A
C705       Br712   1.923       .  S
C706        C707   1.412   1_455  A
C706       H1543   1.084       .  S
C707       C1370   1.510       .  S
C707        C708   1.419       .  A
C708       Br709   1.924       .  S
H711       C1538   1.084       .  S
C713        C714   1.403   1_655  A
C713        C718   1.405       .  A
C713        H720   1.084       .  S
C714        C715   1.416       .  A
C715        C716   1.389       .  A
C715       Br722   1.922       .  S
C716        C717   1.398   1_455  A
C716        H721   1.084       .  S
C717        C718   1.415       .  A
C718       Br719   1.917       .  S
C723        C724   1.405       .  A
C723        C728   1.404       .  A
C723        H730   1.084       .  S
C724        C725   1.409       .  A
C725        C726   1.389       .  A
C725       Br732   1.921       .  S
C726        C727   1.398       .  A
C726        H731   1.084       .  S
C727        C728   1.407       .  A
C728       Br729   1.917       .  S
C733        C734   1.398       .  A
C733        C738   1.393       .  A
C733        H740   1.084       .  S
C734        C735   1.408       .  A
C735        C736   1.398       .  A
C735       Br742   1.919       .  S
C736        C737   1.404       .  A
C736       H1573   1.083       .  S
C737       C1354   1.470       .  S
C737        C738   1.412       .  A
C738       Br739   1.922       .  S
H741       C1568   1.083       .  S
C743        C744   1.407       .  A
C743        C748   1.406       .  A
C743        H750   1.085       .  S
C745       Br752   1.921       .  S
C746        C747   1.410       .  A
C747        C748   1.419       .  A
C748       Br749   1.922       .  S
C753        C754   1.410       .  A
C753        C758   1.411       .  A
C753        H760   1.084       .  S
C754        C755   1.403       .  A
C755        C756   1.395       .  A
C755       Br762   1.921       .  S
C756        C757   1.404       .  A
C756        H761   1.081       .  S
C757        C758   1.409       .  A
C758       Br759   1.916       .  S
C763        C764   1.408       .  A
C763        C768   1.408       .  A
C763        H770   1.084       .  S
C764        C765   1.411       .  A
C765        C766   1.396       .  A
C765       Br772   1.921       .  S
C766        C767   1.404       .  A
C766        H771   1.084       .  S
C767        C768   1.412       .  A
C768       Br769   1.918       .  S
C773        C774   1.402       .  A
C773        C778   1.396       .  A
C773        H780   1.086       .  S
C774        C775   1.412       .  A
C775        C776   1.394       .  A
C775       Br782   1.921       .  S
C776        C777   1.397       .  A
C776        H781   1.087       .  S
C777        C778   1.407       .  A
C778       Br779   1.917       .  S
C783        C784   1.399       .  A
C783        C788   1.397       .  A
C783        H790   1.084       .  S
C784        C785   1.408       .  A
C785        C786   1.396       .  A
C785       Br792   1.919       .  S
C786        C787   1.400       .  A
C786        H791   1.084       .  S
C787       C1376   1.464       .  S
C787        C788   1.410       .  A
C788      Br1621   1.920       .  S
Br789      C1620   1.920       .  S
C793        C794   1.410       .  A
C793        C798   1.405       .  A
C793        H800   1.083       .  S
C794        C795   1.419       .  A
C795        C796   1.406       .  A
C795       Br802   1.922       .  S
C796        C797   1.409       .  A
C796        H801   1.083       .  S
C797        C798   1.418       .  A
C798       Br799   1.923       .  S
C803        C804   1.402       .  A
C803        C808   1.403       .  A
C803        H810   1.083       .  S
C804        C805   1.408       .  A
C805        C806   1.397       .  A
C805       Br812   1.919       .  S
C806        C807   1.402       .  A
C806        H811   1.082       .  S
C807        C808   1.412       .  A
C808       Br809   1.918       .  S
C813        C814   1.402       .  A
C813        C818   1.394       .  A
C813        H820   1.080       .  S
C814        C815   1.415       .  A
C815        C816   1.407       .  A
C815       Br822   1.919       .  S
C816        C817   1.409       .  A
C816        H821   1.083       .  S
C817        C818   1.419       .  A
C818       Br819   1.927       .  S
C823        C824   1.391       .  A
C823        C828   1.386       .  A
C823        H830   1.085       .  S
C824        C825   1.408       .  A
C825        C826   1.410       .  A
C825       Br832   1.914       .  S
C826        C827   1.409       .  A
C826        H831   1.083       .  S
C827        C828   1.418       .  A
C828       Br829   1.915       .  S
O833       Cr851   2.026       .  S
O833        C841   1.271       .  A
O834       Cr851   1.960       .  S
O834        C835   1.256       .  A
C835        O836   1.262       .  A
C835       C1200   1.458       .  S
O836       Cr852   1.995       .  S
O837       Cr852   2.023       .  S
O837        C838   1.260       .  A
C838        O839   1.245       .  A
C838       C1240   1.476       .  S
O839       Cr853   1.964       .  S
O840       Cr853   1.970       .  S
O840        C841   1.261       .  A
C841       C1230   1.483       .  S
O842       Cr851   1.994       .  S
O842        C850   1.255       .  A
O843       Cr851   1.982       .  S
O843        C844   1.263       .  A
C844        O845   1.266       .  A
C844       C1220   1.472       .  S
O845       Cr852   1.994       .  S
O846       Cr852   2.034       .  S
O846        C847   1.277       .  A
C847        O848   1.275       .  A
C847       C1210   1.508       .  S
O848       Cr853   1.994       .  S
O849       Cr853   1.970       .  S
O849        C850   1.252       .  A
C850       C1190   1.472       .  S
Cr851       O854   1.782       .  S
Cr852       O854   1.775       .  S
Cr853       O854   1.763       .  S
O855       Cr873   2.010       .  S
O855        C863   1.263       .  A
O856       Cr873   1.960       .  S
O856        C857   1.259       .  A
C857        O858   1.266       .  A
C857       C1150   1.461       .  S
O858       Cr874   2.010       .  S
O859       Cr874   1.982       .  S
O859        C860   1.255       .  A
C860        O861   1.261       .  A
C860       C1243   1.457       .  S
O861       Cr875   1.983       .  S
O862       Cr875   1.975       .  S
O862        C863   1.258       .  A
C863       C1170   1.485       .  S
O864       Cr873   1.975       .  S
O864        C872   1.259       .  A
O865       Cr873   1.983   1_556  S
O865       C1282   1.262       .  A
C866       O1281   1.262       .  A
C866       O1283   1.263       .  A
C866       C1183   1.466       .  S
O867       Cr874   1.982   1_556  S
O867       C1282   1.263       .  A
O868       Cr874   2.041       .  S
O868        C869   1.274       .  A
C869        O870   1.260       .  A
C869       C1163   1.502       .  S
O870       Cr875   1.975       .  S
O871       Cr875   1.995       .  S
O871        C872   1.265       .  A
C872       C1143   1.465       .  S
Cr873       O876   1.770       .  S
Cr874       O876   1.775       .  S
Cr875       O876   1.758       .  S
O877       Cr895   1.986       .  S
O877        C885   1.257       .  A
O878       Cr895   1.976       .  S
O878        C879   1.263       .  A
C879        O880   1.263       .  A
C879       C1113   1.467       .  S
O880       Cr896   1.999       .  S
O881       Cr896   2.015       .  S
O881        C882   1.263       .  A
C882        O883   1.247       .  A
C882       C1130   1.471       .  S
O883       Cr897   1.957       .  S
O884       Cr897   1.997       .  S
O884        C885   1.260       .  A
C885       C1180   1.475       .  S
O886       Cr895   1.989       .  S
O886        C894   1.263       .  A
O887       Cr895   1.955       .  S
O887        C888   1.257       .  A
C888        O889   1.270       .  A
C888       C1173   1.495       .  S
O889       Cr896   2.019       .  S
O890       Cr896   2.019       .  S
O890        C891   1.275       .  A
C891        O892   1.269       .  A
C891       C1120   1.496       .  S
O892       Cr897   1.988       .  S
O893       Cr897   1.979       .  S
O893        C894   1.258       .  A
C894       C1100   1.472       .  S
Cr895       O898   1.768       .  S
Cr896       O898   1.777       .  S
Cr897       O898   1.767       .  S
O899       Cr917   1.976       .  S
O899        C907   1.258       .  A
O900       Cr917   1.985       .  S
O900        C901   1.260       .  A
C901        O902   1.261       .  A
C901       C1080   1.477       .  S
O902       Cr918   1.989       .  S
O903       Cr918   2.004       .  S
O903        C904   1.269       .  A
C904        O905   1.256       .  A
C904       C1133   1.468       .  S
O905       Cr919   1.969       .  S
O906       Cr919   2.021       .  S
O906        C907   1.268       .  A
C907       C1223   1.478       .  S
O908       Cr917   2.005       .  S
O908        C916   1.262       .  A
O909      Cr1333   1.969   1_554  S
O909        C910   1.259       .  A
C910        O911   1.271       .  A
C910       C1233   1.492       .  S
O911      Cr1334   2.022   1_554  S
O912      Cr1334   2.003   1_554  S
O912       C1329   1.268   1_554  A
C913       O1328   1.268       .  A
C913        O914   1.269       .  A
C913       C1506   1.508       .  S
O914       Cr919   2.026       .  S
O915       Cr919   1.962       .  S
O915        C916   1.257       .  A
C916       C1070   1.455       .  S
Cr917      O1325   1.969       .  S
Cr917       O920   1.767       .  S
Cr918      O1327   2.022       .  S
Cr918      O1328   2.003       .  S
Cr918       O920   1.770       .  S
Cr919       O920   1.764       .  S
O921       Cr939   1.982       .  S
O921        C929   1.259       .  A
O922       Cr939   1.975       .  S
O922        C923   1.258       .  A
C923        O924   1.256       .  A
C923       C1063   1.466       .  S
O924       Cr940   1.996       .  S
O925       Cr940   2.020       .  S
O925        C926   1.269       .  A
C926        O927   1.260       .  A
C926       C1140   1.470       .  S
O927       Cr941   1.960       .  S
O928       Cr941   2.002       .  S
O928        C929   1.262       .  A
C929       C1043   1.489       .  S
O930       Cr939   1.999       .  S
O930        C938   1.263       .  A
O931       Cr939   1.966       .  S
O931        C932   1.260       .  A
C932        O933   1.279       .  A
O933       Cr940   2.052       .  S
O934       Cr940   2.000   1_556  S
O934       C1351   1.266       .  A
C935       O1350   1.266       .  A
C935       O1352   1.259       .  A
C935       C1050   1.479       .  S
O936       Cr941   1.964   1_556  S
O936       C1351   1.259       .  A
O937       Cr941   1.974       .  S
O937        C938   1.259       .  A
Cr939       O942   1.760       .  S
Cr940       O942   1.780       .  S
Cr941       O942   1.763       .  S
O943       Cr961   1.985       .  S
O943        C951   1.260       .  A
O944       Cr961   1.970       .  S
O944        C945   1.247       .  A
C945        O946   1.259       .  A
C945       C1060   1.482       .  S
O946       Cr962   2.022       .  S
O947       Cr962   2.016       .  S
O947        C948   1.268       .  A
C948        O949   1.253       .  A
C948       C1193   1.481       .  S
O949       Cr963   1.940       .  S
O950       Cr963   2.034       .  S
O950        C951   1.271       .  A
C951       C1033   1.491       .  S
O952       Cr961   1.996       .  S
O952        C960   1.258       .  A
O953       Cr961   1.980       .  S
O953        C954   1.269       .  A
C954        O955   1.283       .  A
O955       Cr962   2.052       .  S
O956       Cr962   2.004       .  S
O956        C957   1.267       .  A
C957        O958   1.263       .  A
C957       C1020   1.481       .  S
O958       Cr963   1.991       .  S
O959       Cr963   1.980       .  S
O959        C960   1.255       .  A
Cr961       O964   1.766       .  S
Cr962       O964   1.779       .  S
Cr963       O964   1.771       .  S
O965       Cr983   1.983       .  S
O965        C973   1.260       .  A
O966       Cr983   1.982       .  S
O966        C967   1.258       .  A
C967        O968   1.262       .  A
C967       C1010   1.474       .  S
O968       Cr984   2.003       .  S
O969       Cr984   2.009       .  S
O969        C970   1.265       .  A
C970        O971   1.262       .  A
C970       C1103   1.468       .  S
O971       Cr985   1.975       .  S
O972       Cr985   1.983       .  S
O972        C973   1.254       .  A
C973       C1053   1.472       .  S
O974       Cr983   1.988       .  S
O974        C982   1.263       .  A
O975       Cr983   1.992       .  S
O975        C976   1.266       .  A
C976        O977   1.269       .  A
C976       C1213   1.510       .  S
O977       Cr984   2.022       .  S
O978       Cr984   2.009       .  S
O978        C979   1.268       .  A
C979        O980   1.257       .  A
C979       C1040   1.489       .  S
O980       Cr985   1.963       .  S
O981       Cr985   1.985       .  S
O981        C982   1.264       .  A
C982       C1110   1.473       .  S
Cr983       O986   1.772       .  S
Cr984       O986   1.780       .  S
Cr985       O986   1.776       .  S
O987      Cr1005   2.017       .  S
O987        C995   1.266       .  A
O988      Cr1005   1.957       .  S
O988        C989   1.255       .  A
C989        O990   1.276       .  A
C989       C1013   1.495       .  S
O990      Cr1006   2.041       .  S
O991      Cr1006   1.982       .  S
O991        C992   1.262       .  A
C992        O993   1.261       .  A
C992       C1073   1.473       .  S
O993      Cr1007   1.986       .  S
O994      Cr1007   1.989       .  S
O994        C995   1.259       .  A
C995       C1023   1.489       .  S
O996      Cr1005   1.959       .  S
O996       C1004   1.257       .  A
O997      Cr1005   2.014       .  S
O997        C998   1.265       .  A
C998       O1415   1.265       .  A
C998       C1576   1.501       .  S
O999      Cr1422   1.997   1_554  S
O999       C1414   1.265   1_554  A
O1000     Cr1422   2.033   1_554  S
O1000      C1001   1.271       .  A
C1001      O1002   1.265       .  A
C1001      C1030   1.505       .  S
O1002     Cr1423   1.981   1_554  S
O1003     Cr1007   2.018       .  S
O1003      C1004   1.266       .  A
C1004      C1083   1.464       .  S
Cr1005     O1008   1.765       .  S
Cr1006     O1415   1.997       .  S
Cr1006     O1416   2.033       .  S
Cr1006     O1008   1.771       .  S
Cr1007     O1418   1.981       .  S
Cr1007     O1008   1.769       .  S
C1009      C1010   1.397       .  A
C1009      C1014   1.402       .  A
C1009      H1016   1.084       .  S
C1010      C1011   1.408       .  A
C1011      C1012   1.401       .  A
C1011     Br1018   1.915       .  S
C1012      C1013   1.406       .  A
C1012      H1017   1.083       .  S
C1013      C1014   1.424       .  A
C1014     Br1015   1.925       .  S
C1019      C1020   1.404       .  A
C1019      C1024   1.406       .  A
C1019      H1026   1.083       .  S
C1020      C1021   1.409       .  A
C1021      C1022   1.401       .  A
C1021     Br1028   1.916       .  S
C1022      C1023   1.405       .  A
C1022      H1027   1.083       .  S
C1023      C1024   1.416       .  A
C1024     Br1025   1.921       .  S
C1029      C1030   1.409       .  A
C1029      C1034   1.401       .  A
C1029      H1036   1.083       .  S
C1030      C1031   1.423       .  A
C1031      C1032   1.409       .  A
C1031     Br1038   1.920       .  S
C1032      C1033   1.403       .  A
C1032      H1037   1.083       .  S
C1033      C1034   1.412       .  A
C1034     Br1035   1.919       .  S
C1039      C1040   1.411       .  A
C1039      C1044   1.393       .  A
C1039      H1046   1.083       .  S
C1040      C1041   1.409       .  A
C1041      C1042   1.404       .  A
C1041     Br1048   1.918       .  S
C1042      C1043   1.413       .  A
C1042      H1047   1.082       .  S
C1043      C1044   1.412       .  A
C1044     Br1045   1.925       .  S
C1049      C1050   1.410       .  A
C1049      C1054   1.388       .  A
C1049      H1056   1.083       .  S
C1050      C1051   1.407       .  A
C1051      C1052   1.405       .  A
C1051     Br1058   1.918       .  S
C1052      C1053   1.412       .  A
C1052      H1057   1.084       .  S
C1053      C1054   1.402       .  A
C1054     Br1055   1.922       .  S
C1059      C1060   1.408       .  A
C1059      C1064   1.409   1_655  A
C1059      H1066   1.083   1_655  S
C1060      C1061   1.420       .  A
C1061      C1062   1.385       .  A
C1061     Br1068   1.922       .  S
C1062      C1063   1.392   1_655  A
C1062      H1067   1.085       .  S
C1063      C1064   1.409       .  A
C1064     Br1065   1.918       .  S
C1069      C1070   1.396       .  A
C1069      C1074   1.389   1_565  A
C1069      H1076   1.084       .  S
C1070      C1071   1.406       .  A
C1071     Br1078   1.915       .  S
C1072      C1073   1.405       .  A
C1072      H1077   1.083       .  S
C1074     Br1075   1.923       .  S
C1079      C1080   1.406       .  A
C1079      C1084   1.401       .  A
C1079      H1502   1.084       .  S
C1080      C1081   1.415       .  A
C1081      C1082   1.392       .  A
C1081     Br1088   1.925       .  S
C1082      C1083   1.397       .  A
C1082      H1087   1.084       .  S
C1083      C1084   1.407       .  A
C1084     Br1501   1.918       .  S
Br1085     C1500   1.918       .  S
H1086      C1495   1.084       .  S
C1089      C1090   1.407   1_455  A
C1089      C1094   1.410       .  A
C1089      H1096   1.084   1_455  S
C1090      C1329   1.509   1_554  S
C1090      C1091   1.418   1_554  A
C1091     Br1514   1.921       .  S
C1092      H1097   1.082       .  S
C1093      C1094   1.424       .  A
C1094     Br1095   1.923       .  S
Br1098     C1507   1.921       .  S
C1099      C1100   1.403       .  A
C1099      H1106   1.083       .  S
C1100      C1101   1.416       .  A
C1101      C1102   1.391   1_565  A
C1101     Br1108   1.927       .  S
C1102      H1107   1.084       .  S
C1103      C1104   1.411       .  A
C1104     Br1105   1.919       .  S
C1109      C1110   1.403       .  A
C1109      C1114   1.400       .  A
C1109      H1116   1.084       .  S
C1110      C1111   1.414       .  A
C1111      C1112   1.392       .  A
C1111     Br1118   1.924       .  S
C1112      C1113   1.397       .  A
C1112      H1117   1.084       .  S
C1113      C1114   1.411       .  A
C1114     Br1115   1.918       .  S
C1119      C1120   1.409   1_655  A
C1119      C1124   1.401       .  A
C1119      H1126   1.084       .  S
C1120      C1121   1.413       .  A
C1121      C1122   1.406   1_565  A
C1121     Br1128   1.922   1_565  S
C1122      C1123   1.413   1_445  A
C1123      C1124   1.414       .  A
C1124     Br1125   1.922       .  S
C1129      C1130   1.402   1_655  A
C1129      C1134   1.403       .  A
C1129      H1136   1.083       .  S
C1130      C1131   1.418       .  A
C1131      C1132   1.384       .  A
C1131     Br1138   1.923       .  S
C1132      C1133   1.394   1_455  A
C1132      H1137   1.085       .  S
C1133      C1134   1.412       .  A
C1134     Br1135   1.913       .  S
C1139      C1140   1.406       .  A
C1139      C1144   1.404       .  A
C1139      H1146   1.083       .  S
C1140      C1141   1.411       .  A
C1141      C1142   1.388       .  A
C1141     Br1148   1.924       .  S
C1142      C1143   1.398       .  A
C1142      H1147   1.083       .  S
C1143      C1144   1.408       .  A
C1144     Br1145   1.917       .  S
C1149      C1150   1.400       .  A
C1149      C1154   1.391       .  A
C1149      H1156   1.083       .  S
C1150      C1151   1.408       .  A
C1151      C1152   1.395       .  A
C1151     Br1158   1.918   1_554  S
C1152      C1153   1.403       .  A
C1153      C1154   1.410       .  A
C1154     Br1155   1.923       .  S
C1159      C1160   1.405   1_554  A
C1159      C1164   1.404       .  A
C1159      H1166   1.084       .  S
C1160      C1414   1.501       .  S
C1160      C1577   1.420       .  A
C1161      C1576   1.420       .  A
C1161      C1578   1.408       .  A
C1161     Br1168   1.922       .  S
C1162      C1577   1.408       .  A
C1162      C1163   1.407   1_556  A
C1162      H1583   1.085       .  S
C1163      C1164   1.420       .  A
C1164     Br1165   1.923       .  S
H1167      C1578   1.085       .  S
C1169      C1170   1.413       .  A
C1169      C1174   1.412       .  A
C1169      H1176   1.083       .  S
C1170      C1171   1.407       .  A
C1171      C1172   1.389       .  A
C1171     Br1178   1.926       .  S
C1172      C1173   1.412       .  A
C1172      H1177   1.083       .  S
C1173      C1174   1.410       .  A
C1174     Br1175   1.917       .  S
C1179      C1180   1.406       .  A
C1179      C1184   1.397       .  A
C1179      H1186   1.084       .  S
C1180      C1181   1.410       .  A
C1181      C1182   1.395       .  A
C1181     Br1188   1.918       .  S
C1182      C1183   1.403       .  A
C1182      H1187   1.084       .  S
C1183      C1184   1.408       .  A
C1184     Br1185   1.921       .  S
C1189      C1190   1.399       .  A
C1189      C1194   1.381       .  A
C1189      H1196   1.083       .  S
C1190      C1191   1.408       .  A
C1191      C1192   1.406       .  A
C1191     Br1198   1.918       .  S
C1192      C1193   1.410       .  A
C1192      H1197   1.081       .  S
C1193      C1194   1.417       .  A
C1194     Br1195   1.926       .  S
C1199      C1200   1.399       .  A
C1199      C1204   1.396       .  A
C1199      H1206   1.084       .  S
C1200      C1201   1.407       .  A
C1201      C1202   1.396       .  A
C1201     Br1208   1.919       .  S
C1202      C1203   1.400       .  A
C1202      H1207   1.084       .  S
C1203      C1204   1.410       .  A
C1209      C1210   1.408       .  A
C1209      C1214   1.407       .  A
C1209      H1216   1.082       .  S
C1210      C1211   1.421       .  A
C1211      C1212   1.407       .  A
C1211     Br1218   1.924       .  S
C1212      C1213   1.409       .  A
C1212      H1217   1.082       .  S
C1213      C1214   1.421       .  A
C1214     Br1215   1.922       .  S
C1219      C1220   1.403       .  A
C1219      C1224   1.402       .  A
C1219      H1226   1.084       .  S
C1220      C1221   1.409       .  A
C1221      C1222   1.399       .  A
C1221     Br1228   1.920       .  S
C1222      C1223   1.403       .  A
C1222      H1227   1.083       .  S
C1223      C1224   1.412       .  A
C1224     Br1225   1.921       .  S
C1229      C1230   1.403       .  A
C1229      C1234   1.397       .  A
C1229      H1236   1.084       .  S
C1230      C1231   1.409       .  A
C1231      C1232   1.403       .  A
C1231     Br1238   1.919       .  S
C1232      C1233   1.411       .  A
C1232      H1237   1.083       .  S
C1233      C1234   1.418       .  A
C1234     Br1235   1.925       .  S
C1239      C1240   1.406       .  A
C1239      C1244   1.406       .  A
C1239      H1246   1.083       .  S
C1240      C1241   1.420       .  A
C1241      C1242   1.385       .  A
C1241     Br1248   1.918       .  S
C1242      C1243   1.388       .  A
C1242      H1247   1.085       .  S
C1243      C1244   1.408       .  A
C1244     Br1245   1.918       .  S
O1249     Cr1267   2.026       .  S
O1249      C1257   1.271       .  A
O1250     Cr1267   1.960       .  S
O1250      C1251   1.256       .  A
C1251      O1252   1.262       .  A
C1251      C1616   1.458       .  S
O1252     Cr1268   1.995       .  S
O1253     Cr1268   2.023       .  S
O1253      C1254   1.260       .  A
C1254      O1255   1.245       .  A
C1254      C1656   1.476       .  S
O1255     Cr1269   1.964       .  S
O1256     Cr1269   1.970       .  S
O1256      C1257   1.261       .  A
C1257      C1646   1.483       .  S
O1258     Cr1267   1.994       .  S
O1258      C1266   1.255       .  A
O1259     Cr1267   1.982       .  S
O1259      C1260   1.263       .  A
C1260      O1261   1.266       .  A
C1260      C1636   1.472       .  S
O1261     Cr1268   1.994       .  S
O1262     Cr1268   2.034       .  S
O1262      C1263   1.277       .  A
C1263      O1264   1.275       .  A
C1263      C1626   1.508       .  S
O1264     Cr1269   1.994       .  S
O1265     Cr1269   1.970       .  S
O1265      C1266   1.252       .  A
C1266      C1606   1.472       .  S
Cr1267     O1270   1.782       .  S
Cr1268     O1270   1.775       .  S
Cr1269     O1270   1.763       .  S
O1271     Cr1289   2.010       .  S
O1271      C1279   1.263       .  A
O1272     Cr1289   1.960       .  S
O1272      C1273   1.259       .  A
C1273      O1274   1.266       .  A
C1273      C1566   1.461       .  S
O1274     Cr1290   2.010       .  S
O1275     Cr1290   1.981       .  S
O1275      C1276   1.255       .  A
C1276      O1277   1.261       .  A
C1276      C1659   1.457       .  S
O1277     Cr1291   1.983       .  S
O1278     Cr1291   1.975       .  S
O1278      C1279   1.258       .  A
C1279      C1586   1.485       .  S
O1280     Cr1289   1.975       .  S
O1280      C1288   1.259       .  A
O1281     Cr1289   1.983       .  S
C1282      C1599   1.466       .  S
O1283     Cr1290   1.982       .  S
O1284     Cr1290   2.040       .  S
O1284      C1285   1.274       .  A
C1285      O1286   1.260       .  A
C1285      C1579   1.502       .  S
O1286     Cr1291   1.975       .  S
O1287     Cr1291   1.995       .  S
O1287      C1288   1.265       .  A
C1288      C1559   1.465       .  S
Cr1289     O1292   1.770       .  S
Cr1290     O1292   1.775       .  S
Cr1291     O1292   1.758       .  S
O1293     Cr1311   1.986       .  S
O1293      C1301   1.257       .  A
O1294     Cr1311   1.976       .  S
O1294      C1295   1.263       .  A
C1295      O1296   1.263       .  A
C1295      C1529   1.467       .  S
O1296     Cr1312   1.999       .  S
O1297     Cr1312   2.015       .  S
O1297      C1298   1.263       .  A
C1298      O1299   1.247       .  A
C1298      C1546   1.471       .  S
O1299     Cr1313   1.957       .  S
O1300     Cr1313   1.997       .  S
O1300      C1301   1.260       .  A
C1301      C1596   1.475       .  S
O1302     Cr1311   1.989       .  S
O1302      C1310   1.263       .  A
O1303     Cr1311   1.955       .  S
O1303      C1304   1.257       .  A
C1304      O1305   1.270       .  A
C1304      C1589   1.495       .  S
O1305     Cr1312   2.019       .  S
O1306     Cr1312   2.019       .  S
O1306      C1307   1.275       .  A
C1307      O1308   1.269       .  A
C1307      C1536   1.496       .  S
O1308     Cr1313   1.987       .  S
O1309     Cr1313   1.979       .  S
O1309      C1310   1.258       .  A
C1310      C1516   1.472       .  S
Cr1311     O1314   1.768       .  S
Cr1312     O1314   1.777       .  S
Cr1313     O1314   1.767       .  S
O1315     Cr1333   1.976       .  S
O1315      C1323   1.258       .  A
O1316     Cr1333   1.985   1_554  S
O1316      C1317   1.260   1_554  A
C1317      O1318   1.261       .  A
C1317      C1496   1.477       .  S
O1318     Cr1334   1.989       .  S
O1319     Cr1334   2.004       .  S
O1319      C1320   1.269       .  A
C1320      O1321   1.256       .  A
C1320      C1549   1.468       .  S
O1321     Cr1335   1.969       .  S
O1322     Cr1335   2.021       .  S
O1322      C1323   1.268       .  A
C1323      C1639   1.478       .  S
O1324     Cr1333   2.005       .  S
O1324      C1332   1.262       .  A
O1325      C1326   1.259       .  A
C1326      O1327   1.271       .  A
C1326      C1649   1.492       .  S
C1329      O1330   1.269       .  A
O1330     Cr1335   2.026       .  S
O1331     Cr1335   1.962       .  S
O1331      C1332   1.258       .  A
C1332      C1486   1.455       .  S
Cr1333     O1336   1.767       .  S
Cr1334     O1336   1.770       .  S
Cr1335     O1336   1.764       .  S
O1337     Cr1355   1.982       .  S
O1337      C1345   1.259       .  A
O1338     Cr1355   1.975       .  S
O1338      C1339   1.258       .  A
C1339      O1340   1.256       .  A
C1339      C1479   1.466       .  S
O1340     Cr1356   1.996       .  S
O1341     Cr1356   2.020       .  S
O1341      C1342   1.269       .  A
C1342      O1343   1.260       .  A
C1342      C1556   1.470       .  S
O1343     Cr1357   1.960       .  S
O1344     Cr1357   2.002       .  S
O1344      C1345   1.262       .  A
C1345      C1459   1.489       .  S
O1346     Cr1355   1.999       .  S
O1346      C1354   1.263       .  A
O1347     Cr1355   1.966       .  S
O1347      C1348   1.260       .  A
C1348      O1349   1.280       .  A
O1349     Cr1356   2.052       .  S
O1350     Cr1356   2.000       .  S
C1351      C1466   1.479       .  S
O1352     Cr1357   1.964       .  S
O1353     Cr1357   1.974       .  S
O1353      C1354   1.259       .  A
Cr1355     O1358   1.760       .  S
Cr1356     O1358   1.780       .  S
Cr1357     O1358   1.763       .  S
O1359     Cr1377   1.985       .  S
O1359      C1367   1.260       .  A
O1360     Cr1377   1.970       .  S
O1360      C1361   1.247       .  A
C1361      O1362   1.259       .  A
C1361      C1476   1.482       .  S
O1362     Cr1378   2.022       .  S
O1363     Cr1378   2.016       .  S
O1363      C1364   1.268       .  A
C1364      O1365   1.253       .  A
C1364      C1609   1.481       .  S
O1365     Cr1379   1.940       .  S
O1366     Cr1379   2.034       .  S
O1366      C1367   1.271       .  A
C1367      C1449   1.491       .  S
O1368     Cr1377   1.996       .  S
O1368      C1376   1.258       .  A
O1369     Cr1377   1.980       .  S
O1369      C1370   1.269       .  A
C1370      O1371   1.283       .  A
O1371     Cr1378   2.052       .  S
O1372     Cr1378   2.004       .  S
O1372      C1373   1.267       .  A
C1373      O1374   1.263       .  A
C1373      C1436   1.481       .  S
O1374     Cr1379   1.991       .  S
O1375     Cr1379   1.980       .  S
O1375      C1376   1.255       .  A
Cr1377     O1380   1.766       .  S
Cr1378     O1380   1.779       .  S
Cr1379     O1380   1.771       .  S
O1381     Cr1399   1.983       .  S
O1381      C1389   1.260       .  A
O1382     Cr1399   1.982       .  S
O1382      C1383   1.258       .  A
C1383      O1384   1.262       .  A
C1383      C1426   1.474       .  S
O1384     Cr1400   2.003       .  S
O1385     Cr1400   2.009       .  S
O1385      C1386   1.265       .  A
C1386      O1387   1.262       .  A
C1386      C1519   1.468       .  S
O1387     Cr1401   1.975       .  S
O1388     Cr1401   1.983       .  S
O1388      C1389   1.254       .  A
C1389      C1469   1.472       .  S
O1390     Cr1399   1.988       .  S
O1390      C1398   1.263       .  A
O1391     Cr1399   1.992       .  S
O1391      C1392   1.266       .  A
C1392      O1393   1.269       .  A
C1392      C1629   1.510       .  S
O1393     Cr1400   2.022       .  S
O1394     Cr1400   2.009       .  S
O1394      C1395   1.268       .  A
C1395      O1396   1.257       .  A
C1395      C1456   1.489       .  S
O1396     Cr1401   1.963       .  S
O1397     Cr1401   1.985       .  S
O1397      C1398   1.264       .  A
C1398      C1526   1.473       .  S
Cr1399     O1402   1.772       .  S
Cr1400     O1402   1.780       .  S
Cr1401     O1402   1.776       .  S
O1403     Cr1421   2.017       .  S
O1403      C1411   1.266       .  A
O1404     Cr1421   1.957       .  S
O1404      C1405   1.255       .  A
C1405      O1406   1.276       .  A
C1405      C1429   1.495       .  S
O1406     Cr1422   2.041       .  S
O1407     Cr1422   1.982       .  S
O1407      C1408   1.262       .  A
C1408      O1409   1.261       .  A
C1408      C1489   1.473       .  S
O1409     Cr1423   1.986       .  S
O1410     Cr1423   1.989       .  S
O1410      C1411   1.259       .  A
C1411      C1439   1.489       .  S
O1412     Cr1421   1.959       .  S
O1412      C1420   1.257       .  A
O1413     Cr1421   2.014       .  S
O1413      C1414   1.265       .  A
O1416      C1417   1.271       .  A
C1417      O1418   1.265       .  A
C1417      C1446   1.505       .  S
O1419     Cr1423   2.018       .  S
O1419      C1420   1.266       .  A
C1420      C1499   1.464       .  S
Cr1421     O1424   1.765       .  S
Cr1422     O1424   1.771       .  S
Cr1423     O1424   1.769       .  S
C1425      C1426   1.397       .  A
C1425      C1430   1.402       .  A
C1425      H1432   1.084       .  S
C1426      C1427   1.408       .  A
C1427      C1428   1.401       .  A
C1427     Br1434   1.915       .  S
C1428      C1429   1.406       .  A
C1428      H1433   1.083       .  S
C1429      C1430   1.424       .  A
C1430     Br1431   1.925       .  S
C1435      C1436   1.404       .  A
C1435      C1440   1.406       .  A
C1435      H1442   1.083       .  S
C1436      C1437   1.409       .  A
C1437      C1438   1.401       .  A
C1437     Br1444   1.916       .  S
C1438      C1439   1.405       .  A
C1438      H1443   1.083       .  S
C1439      C1440   1.416       .  A
C1440     Br1441   1.921       .  S
C1445      C1446   1.409       .  A
C1445      C1450   1.401       .  A
C1445      H1452   1.083       .  S
C1446      C1447   1.423       .  A
C1447      C1448   1.409       .  A
C1447     Br1454   1.920       .  S
C1448      C1449   1.403       .  A
C1448      H1453   1.083       .  S
C1449      C1450   1.412       .  A
C1450     Br1451   1.919       .  S
C1455      C1456   1.411       .  A
C1455      C1460   1.393       .  A
C1455      H1462   1.083       .  S
C1456      C1457   1.409       .  A
C1457      C1458   1.404       .  A
C1457     Br1464   1.918       .  S
C1458      C1459   1.413       .  A
C1458      H1463   1.082       .  S
C1459      C1460   1.412       .  A
C1460     Br1461   1.925       .  S
C1465      C1466   1.410       .  A
C1465      C1470   1.388       .  A
C1465      H1472   1.083       .  S
C1466      C1467   1.407       .  A
C1467      C1468   1.405       .  A
C1467     Br1474   1.918       .  S
C1468      C1469   1.412       .  A
C1468      H1473   1.084       .  S
C1469      C1470   1.402       .  A
C1470     Br1471   1.922       .  S
C1475      C1476   1.408       .  A
C1475      C1480   1.409   1_655  A
C1475      H1482   1.083   1_655  S
C1476      C1477   1.420       .  A
C1477      C1478   1.385       .  A
C1477     Br1484   1.922       .  S
C1478      C1479   1.392   1_655  A
C1478      H1483   1.085       .  S
C1479      C1480   1.409       .  A
C1480     Br1481   1.918       .  S
C1485      C1486   1.396   1_554  A
C1485      C1490   1.389   1_565  A
C1485      H1492   1.084       .  S
C1486      C1487   1.406       .  A
C1487     Br1494   1.915       .  S
C1488      C1489   1.405       .  A
C1488      H1493   1.083       .  S
C1490     Br1491   1.923       .  S
C1495      C1496   1.406       .  A
C1495      C1500   1.401       .  A
C1496      C1497   1.415   1_556  A
C1497      C1498   1.392       .  A
C1497     Br1504   1.925       .  S
C1498      C1499   1.397   1_554  A
C1498      H1503   1.084       .  S
C1499      C1500   1.407       .  A
C1505      C1506   1.407   1_455  A
C1505      C1510   1.410       .  A
C1505      H1512   1.084   1_455  S
C1506      C1507   1.418       .  A
C1508      H1513   1.082       .  S
C1509      C1510   1.424       .  A
C1510     Br1511   1.923       .  S
C1515      C1516   1.403       .  A
C1515      H1522   1.083       .  S
C1516      C1517   1.416       .  A
C1517      C1518   1.391   1_565  A
C1517     Br1524   1.927       .  S
C1518      H1523   1.084       .  S
C1519      C1520   1.411       .  A
C1520     Br1521   1.919       .  S
C1525      C1526   1.403       .  A
C1525      C1530   1.400       .  A
C1525      H1532   1.084       .  S
C1526      C1527   1.414       .  A
C1527      C1528   1.392       .  A
C1527     Br1534   1.924       .  S
C1528      C1529   1.397       .  A
C1528      H1533   1.084       .  S
C1529      C1530   1.411       .  A
C1530     Br1531   1.918       .  S
C1535      C1536   1.409   1_655  A
C1535      C1540   1.401       .  A
C1535      H1542   1.084       .  S
C1536      C1537   1.413       .  A
C1537      C1538   1.406   1_565  A
C1537     Br1544   1.922   1_565  S
C1538      C1539   1.413   1_445  A
C1539      C1540   1.414       .  A
C1540     Br1541   1.922       .  S
C1545      C1546   1.402   1_655  A
C1545      C1550   1.403       .  A
C1545      H1552   1.083       .  S
C1546      C1547   1.418       .  A
C1547      C1548   1.384       .  A
C1547     Br1554   1.923       .  S
C1548      C1549   1.394   1_455  A
C1548      H1553   1.085       .  S
C1549      C1550   1.412       .  A
C1550     Br1551   1.913       .  S
C1555      C1556   1.406       .  A
C1555      C1560   1.404       .  A
C1555      H1562   1.083       .  S
C1556      C1557   1.411       .  A
C1557      C1558   1.388       .  A
C1557     Br1564   1.924       .  S
C1558      C1559   1.398       .  A
C1558      H1563   1.083       .  S
C1559      C1560   1.408       .  A
C1560     Br1561   1.917       .  S
C1565      C1566   1.400       .  A
C1565      C1570   1.391       .  A
C1565      H1572   1.083       .  S
C1566      C1567   1.408       .  A
C1567      C1568   1.395       .  A
C1567     Br1574   1.918       .  S
C1568      C1569   1.403       .  A
C1569      C1570   1.410       .  A
C1570     Br1571   1.923       .  S
C1575      C1576   1.405       .  A
C1575      C1580   1.404       .  A
C1575      H1582   1.084       .  S
C1577     Br1584   1.922       .  S
C1578      C1579   1.407       .  A
C1579      C1580   1.420       .  A
C1580     Br1581   1.923       .  S
C1585      C1586   1.413       .  A
C1585      C1590   1.412       .  A
C1585      H1592   1.083       .  S
C1586      C1587   1.407       .  A
C1587      C1588   1.389       .  A
C1587     Br1594   1.926       .  S
C1588      C1589   1.412       .  A
C1588      H1593   1.083       .  S
C1589      C1590   1.410       .  A
C1590     Br1591   1.917       .  S
C1595      C1596   1.406       .  A
C1595      C1600   1.397       .  A
C1595      H1602   1.084       .  S
C1596      C1597   1.410       .  A
C1597      C1598   1.395       .  A
C1597     Br1604   1.918       .  S
C1598      C1599   1.403       .  A
C1598      H1603   1.084       .  S
C1599      C1600   1.408       .  A
C1600     Br1601   1.921       .  S
C1605      C1606   1.399       .  A
C1605      C1610   1.381       .  A
C1605      H1612   1.083       .  S
C1606      C1607   1.408       .  A
C1607      C1608   1.406       .  A
C1607     Br1614   1.918       .  S
C1608      C1609   1.410       .  A
C1608      H1613   1.081       .  S
C1609      C1610   1.417       .  A
C1610     Br1611   1.926       .  S
C1615      C1616   1.399       .  A
C1615      C1620   1.396       .  A
C1615      H1622   1.084       .  S
C1616      C1617   1.407       .  A
C1617      C1618   1.396       .  A
C1617     Br1624   1.919       .  S
C1618      C1619   1.400       .  A
C1618      H1623   1.084       .  S
C1619      C1620   1.410       .  A
C1625      C1626   1.408       .  A
C1625      C1630   1.407       .  A
C1625      H1632   1.082       .  S
C1626      C1627   1.421       .  A
C1627      C1628   1.407       .  A
C1627     Br1634   1.924       .  S
C1628      C1629   1.409       .  A
C1628      H1633   1.082       .  S
C1629      C1630   1.421       .  A
C1630     Br1631   1.922       .  S
C1635      C1636   1.403       .  A
C1635      C1640   1.402       .  A
C1635      H1642   1.084       .  S
C1636      C1637   1.409       .  A
C1637      C1638   1.399       .  A
C1637     Br1644   1.920       .  S
C1638      C1639   1.403       .  A
C1638      H1643   1.083       .  S
C1639      C1640   1.412       .  A
C1640     Br1641   1.921       .  S
C1645      C1646   1.403       .  A
C1645      C1650   1.397       .  A
C1645      H1652   1.084       .  S
C1646      C1647   1.409       .  A
C1647      C1648   1.403       .  A
C1647     Br1654   1.919       .  S
C1648      C1649   1.411       .  A
C1648      H1653   1.083       .  S
C1649      C1650   1.418       .  A
C1650     Br1651   1.925       .  S
C1655      C1656   1.406       .  A
C1655      C1660   1.406       .  A
C1655      H1662   1.083       .  S
C1656      C1657   1.420       .  A
C1657      C1658   1.385       .  A
C1657     Br1664   1.918       .  S
C1658      C1659   1.388       .  A
C1658      H1663   1.085       .  S
C1659      C1660   1.408       .  A
C1660     Br1661   1.918       .  S
