geometry optimzed in LAMMPS
_audit_creation_date              2020-11-30 
_audit_creation_method            'lammps2cif' 
_symmetry_space_group_name_H-M    'P1' 
_symmetry_Int_Tables_number       1 
_symmetry_cell_setting            triclinic 
loop_ 
_symmetry_equiv_pos_as_xyz 
  x,y,z 
_cell_length_a                    69.47859225 
_cell_length_b                    69.70517987063236 
_cell_length_c                    41.942168847856216 
_cell_angle_alpha                 90.17682388376655 
_cell_angle_beta                  90.36150015471455 
_cell_angle_gamma                 120.06323802428928 
loop_ 
_atom_site_label 
_atom_site_type_symbol 
_atom_site_fract_x 
_atom_site_fract_y 
_atom_site_fract_z 
_atom_site_charge 
O1          O  0.60444809  0.41896879  0.47349773    -0.88700
C2          C  0.56036536  0.39238795  0.40041941     0.87400
Mg3        Mg  0.59431613  0.41455768  0.52195034     1.58100
O4          O  0.58368575  0.44974938  0.40741934    -0.88400
O5          O  0.62296445  0.44622129  0.43999881    -0.75700
C6          C  0.51770114  0.44461341  0.52668746     0.92400
O7          O  0.55681181  0.37484800  0.47103060    -0.75500
O8          O  0.52424303  0.43265754  0.54051330    -0.83000
Mg9        Mg  0.59024433  0.38984167  0.44458892     1.58000
C10         C  0.54433448  0.47836977  0.40086007     0.92400
O11         O  0.62325746  0.40200709  0.41898394    -0.81300
H12         H  0.61023399  0.48022097  0.40615483    -0.06600
C13         C  0.52293734  0.41399647  0.44979115     0.87300
O14         O  0.59846604  0.44976773  0.52158461    -0.75800
O15         O  0.57906456  0.40501902  0.41161383    -0.88600
O16         O  0.54847201  0.46493874  0.38587983    -0.81400
C17         C  0.57250773  0.42984394  0.32694229     0.92500
C18         C  0.63331252  0.41240742  0.39400021     0.92300
Mg19       Mg  0.55537182  0.46180899  0.46808655     1.58000
O20         O  0.52416272  0.45231537  0.49872917    -0.81300
O21         O  0.58750221  0.47625144  0.43942986    -0.75500
O22         O  0.58716572  0.42787569  0.34277402    -0.81400
O23         O  0.60066716  0.37211730  0.47821949    -0.83100
O24         O  0.56083217  0.42422808  0.57192123    -0.81400
C25         C  0.59431919  0.46918191  0.41676560     0.86800
O26         O  0.56766745  0.44657784  0.50167771    -0.88600
O27         O  0.54001480  0.43098187  0.44155439    -0.88700
O28         O  0.52116510  0.40569894  0.47730291    -0.75700
Mg29       Mg  0.60359718  0.43609386  0.39248012     1.58000
O30         O  0.55883444  0.43435156  0.34037915    -0.83100
H31         H  0.63357893  0.44565311  0.48497213    -0.06800
O32         O  0.56044239  0.40003678  0.50585230    -0.88400
H33         H  0.53286274  0.37030616  0.50260960    -0.06600
H34         H  0.59300408  0.47566773  0.51658857    -0.06800
C35         C  0.54942782  0.38129924  0.49389776     0.86700
C36         C  0.62090550  0.43704660  0.46690685     0.87300
C37         C  0.58647442  0.45806660  0.51345362     0.87400
H38         H  0.50938361  0.40566959  0.43286968    -0.06800
O39         O  0.54674269  0.39895715  0.39408432    -0.75800
Mg40       Mg  0.54288388  0.41605153  0.52280796     1.58000
H41         H  0.55511045  0.37503936  0.39730263    -0.06800
C42         C  0.59655719  0.36769445  0.50753251     0.92400
O43         O  0.58492734  0.41208150  0.57380856    -0.83100
C44         C  0.57378757  0.41960752  0.58757340     0.92400
O45         O  0.62632211  0.42294165  0.37728063    -0.83000
Mg46       Mg  0.54936969  0.43292857  0.39245129     1.58200
O47         O  0.59191911  0.37959958  0.52570386    -0.81400
O48         O  0.54354093  0.47849766  0.43131199    -0.83100
O49         O  0.60072585  0.41416855  0.97555221    -0.88700
C50         C  0.55933545  0.39254669  0.89875996     0.87400
Mg51       Mg  0.58879251  0.40911199  0.02324843     1.58100
O52         O  0.58646466  0.45004489  0.90941396    -0.88400
O53         O  0.62213665  0.44165177  0.94398776    -0.75700
C54         C  0.51783311  0.44684401  0.02399104     0.92400
O55         O  0.55163141  0.37257075  0.96834021    -0.75500
O56         O  0.52206893  0.43310547  0.03776669    -0.83000
Mg57       Mg  0.58586073  0.38592992  0.94461429     1.58000
C58         C  0.55092587  0.48291726  0.90230469     0.92400
O59         O  0.61973933  0.39648285  0.92153137    -0.81300
H60         H  0.61461214  0.47930450  0.91142913    -0.06600
C61         C  0.52376666  0.41696837  0.94676559     0.87300
O62         O  0.59568459  0.44523278  0.02481773    -0.75800
O63         O  0.57782107  0.40366864  0.91147964    -0.88600
O64         O  0.55489879  0.46962862  0.88657112    -0.81400
C65         C  0.57721536  0.43296068  0.82744437     0.92500
C66         C  0.63050468  0.40694115  0.89693839     0.92300
Mg67       Mg  0.55821898  0.46317319  0.96914253     1.58000
O68         O  0.52669705  0.45569008  0.99744628    -0.81300
O69         O  0.59125544  0.47609459  0.94308527    -0.75500
O70         O  0.59043380  0.42918825  0.84398000    -0.81400
O71         O  0.59251099  0.36539719  0.97825497    -0.83100
O72         O  0.55524552  0.42017519  0.07155103    -0.81400
C73         C  0.59800501  0.46892953  0.92045726     0.86800
O74         O  0.56692554  0.44517271  0.00287917    -0.88600
O75         O  0.54194239  0.43331266  0.94043063    -0.88700
O76         O  0.52005951  0.40755349  0.97372439    -0.75700
Mg77       Mg  0.60457453  0.43438047  0.89505429     1.58000
O78         O  0.56389872  0.43815836  0.84043470    -0.83100
H79         H  0.63047243  0.43891413  0.98952080    -0.06800
O80         O  0.55576242  0.39718770  0.00460426    -0.88400
H81         H  0.52705246  0.36881411  0.99811371    -0.06600
H82         H  0.59278510  0.47273002  0.02084930    -0.06800
C83         C  0.54417685  0.37910190  0.99103381     0.86700
C84         C  0.61829813  0.43162150  0.97049573     0.87300
C85         C  0.58526972  0.45512271  0.01641779     0.87400
H86         H  0.51089923  0.41015023  0.92860567    -0.06800
O87         O  0.54722511  0.40082984  0.89197311    -0.75800
Mg88       Mg  0.53959343  0.41488994  0.02097322     1.58000
H89         H  0.55289625  0.37504750  0.89463329    -0.06800
C90         C  0.58837268  0.36120292  0.00760602     0.92400
O91         O  0.57706696  0.40532403  0.07408045    -0.83100
C92         C  0.56645752  0.41353662  0.08759765     0.92400
O93         O  0.62491697  0.41872759  0.88052669    -0.83000
Mg94       Mg  0.55286541  0.43604339  0.89194009     1.58200
O95         O  0.58456401  0.37359580  0.02593550    -0.81400
O96         O  0.54950436  0.48215862  0.93265745    -0.83100
O97         O  0.39821689  0.58578189  0.22444756    -0.88700
C98         C  0.44046290  0.61130737  0.15015285     0.87400
Mg99       Mg  0.40918782  0.58957505  0.27300512     1.58100
O100        O  0.41497053  0.55373219  0.15668611    -0.88400
O101        O  0.37750357  0.55942133  0.19022711    -0.75700
C102        C  0.48467634  0.55783740  0.27212178     0.92400
O103        O  0.44638289  0.62906311  0.22143749    -0.75500
O104        O  0.47971209  0.57086624  0.28651568    -0.83000
Mg105      Mg  0.41242090  0.61507136  0.19607511     1.58000
C106        C  0.45227923  0.52282758  0.14838919     0.92400
O107        O  0.37877873  0.60397577  0.17134436    -0.81300
H108        H  0.38736790  0.52400338  0.15738463    -0.06600
C109        C  0.47722012  0.58800015  0.19712798     0.87300
O110        O  0.40417477  0.55426844  0.27193407    -0.75800
O111        O  0.42185871  0.59931634  0.16157382    -0.88600
O112        O  0.44821509  0.53635320  0.13357376    -0.81400
C113        C  0.42536280  0.57307205  0.07637188     0.92500
C114        C  0.36822058  0.59420756  0.14591468     0.92300
Mg115      Mg  0.44408715  0.54070666  0.21628832     1.58000
O116        O  0.47590477  0.54898227  0.24524523    -0.81300
O117        O  0.41105598  0.52752453  0.18917146    -0.75500
O118        O  0.41129851  0.57582636  0.09223139    -0.81400
O119        O  0.40416979  0.63351140  0.23146828    -0.83100
O120        O  0.44458247  0.58071229  0.32106321    -0.81400
C121        C  0.40391232  0.53465090  0.16689442     0.86800
O122        O  0.43429352  0.55704015  0.25103752    -0.88600
O123        O  0.45951802  0.57122214  0.18975747    -0.88700
O124        O  0.48034882  0.59692034  0.22453919    -0.75700
Mg125      Mg  0.39599222  0.56869625  0.14236105     1.58000
O126        O  0.43870441  0.56803895  0.08979439    -0.83100
H127        H  0.36845646  0.56030882  0.23588810    -0.06800
O128        O  0.44282931  0.60391668  0.25603654    -0.88400
H129        H  0.47079616  0.63321814  0.25235861    -0.06600
H130        H  0.40936894  0.52824089  0.26668957    -0.06800
C131        C  0.45393003  0.62250572  0.24404481     0.86700
C132        C  0.38086823  0.56840256  0.21767775     0.87300
C133        C  0.41588594  0.54580930  0.26350688     0.87400
H134        H  0.49010938  0.59568033  0.17944766    -0.06800
O135        O  0.45332152  0.60391514  0.14339277    -0.75800
Mg136      Mg  0.46053219  0.58764127  0.27109922     1.58000
H137        H  0.44633237  0.62878197  0.14722634    -0.06800
C138        C  0.40812762  0.63678088  0.26113583     0.92400
O139        O  0.41975361  0.59187789  0.32467145    -0.83100
C140        C  0.43179426  0.58500717  0.33756359     0.92400
O141        O  0.37455926  0.58365062  0.12803367    -0.83000
Mg142      Mg  0.44899117  0.56921496  0.14117820     1.58200
O143        O  0.41198553  0.62406610  0.27848060    -0.81400
O144        O  0.45357291  0.52290994  0.17876577    -0.83100
O145        O  0.40081513  0.58567828  0.72350418    -0.88700
C146        C  0.44258852  0.61018217  0.64873890     0.87400
Mg147      Mg  0.41199852  0.59184297  0.77187437     1.58100
O148        O  0.41875898  0.55310533  0.65823578    -0.88400
O149        O  0.38070330  0.55794571  0.69082211    -0.75700
C150        C  0.48799192  0.56091650  0.77701816     0.92400
O151        O  0.44842589  0.62953656  0.71865263    -0.75500
O152        O  0.48234154  0.57362082  0.79081713    -0.83000
Mg153      Mg  0.41425563  0.61384509  0.69326054     1.58000
C154        C  0.45753504  0.52409066  0.65370195     0.92400
O155        O  0.38068503  0.60118124  0.66910044    -0.81300
H156        H  0.39190965  0.52284026  0.65929247    -0.06600
C157        C  0.48089849  0.58958316  0.69949448     0.87300
O158        O  0.40755016  0.55664538  0.77399768    -0.75800
O159        O  0.42422617  0.59781067  0.66054251    -0.88600
O160        O  0.45289810  0.53688379  0.63799950    -0.81400
C161        C  0.42824869  0.57045036  0.57700379     0.92500
C162        C  0.36990427  0.59070264  0.64432315     0.92300
Mg163      Mg  0.44843401  0.54272403  0.71997171     1.58000
O164        O  0.48020009  0.55233931  0.74966266    -0.81300
O165        O  0.41555005  0.52792227  0.69217316    -0.75500
O166        O  0.41374595  0.57282227  0.59230287    -0.81400
O167        O  0.40477328  0.63241828  0.72566686    -0.83100
O168        O  0.44692147  0.58414976  0.82251252    -0.81400
C169        C  0.40821255  0.53414976  0.66902761     0.86800
O170        O  0.43760609  0.55914519  0.75332452    -0.88600
O171        O  0.46328124  0.57269016  0.69218346    -0.88700
O172        O  0.48380550  0.59871230  0.72672748    -0.75700
Mg173      Mg  0.39876418  0.56650884  0.64260199     1.58000
O174        O  0.44231392  0.56670948  0.59118798    -0.83100
H175        H  0.37177970  0.55966144  0.73626704    -0.06800
O176        O  0.44561712  0.60586329  0.75530623    -0.88400
H177        H  0.47323569  0.63525656  0.74987512    -0.06600
H178        H  0.41303767  0.53068068  0.77054427    -0.06800
C179        C  0.45638234  0.62401362  0.74198991     0.86700
C180        C  0.38391112  0.56765989  0.71768311     0.87300
C181        C  0.41931380  0.54809445  0.76619321     0.87400
H182        H  0.49395484  0.59707595  0.68202088    -0.06800
O183        O  0.45621414  0.60358442  0.64301654    -0.75800
Mg184      Mg  0.46341359  0.59014619  0.77283656     1.58000
H185        H  0.44760715  0.62737389  0.64475066    -0.06800
C186        C  0.40927676  0.63771201  0.75471995     0.92400
O187        O  0.42295157  0.59651817  0.82317759    -0.83100
C188        C  0.43445140  0.58961326  0.83758965     0.92400
O189        O  0.37618733  0.57989607  0.62692266    -0.83000
Mg190      Mg  0.45285018  0.56936001  0.64310959     1.58200
O191        O  0.41419560  0.62658601  0.77391475    -0.81400
O192        O  0.45922668  0.52509084  0.68405469    -0.83100
O193        O  0.18375948  0.57801072  0.02367627    -0.88700
C194        C  0.16614220  0.60201000  0.09882340     0.87400
Mg195      Mg  0.17817912  0.58308617  0.97533569     1.58100
O196        O  0.13339070  0.54474429  0.08742760    -0.88400
O197        O  0.17718434  0.55070952  0.05593349    -0.75700
C198        C  0.07089859  0.55189706  0.96907835     0.92400
O199        O  0.17891147  0.62095315  0.02822867    -0.75500
O200        O  0.08912513  0.56362781  0.95451431    -0.83000
Mg201      Mg  0.19842849  0.60657682  0.05370270     1.58000
C202        C  0.06488619  0.51514196  0.09165998     0.92400
O203        O  0.21978575  0.59455941  0.07782476    -0.81300
H204        H  0.13006302  0.51457833  0.08522272    -0.06600
C205        C  0.10709768  0.58067596  0.04636299     0.87300
O206        O  0.14765023  0.54764104  0.97369241    -0.75800
O207        O  0.17263012  0.59007755  0.08681073    -0.88600
O208        O  0.08266712  0.52765209  0.10718189    -0.81400
C209        C  0.13978805  0.56081294  0.16944412     0.92500
C210        C  0.22064412  0.58395974  0.10188908     0.92300
Mg211      Mg  0.09236597  0.53385168  0.02574543     1.58000
O212        O  0.07026467  0.54389284  0.99666648    -0.81300
O213        O  0.11085966  0.51941079  0.05330250    -0.75500
O214        O  0.15746536  0.56424253  0.15518307    -0.81400
O215        O  0.22651815  0.62576247  0.02061414    -0.83100
O216        O  0.13513258  0.57362127  0.92297168    -0.81400
C217        C  0.12490256  0.52580524  0.07609741     0.86800
O218        O  0.11951142  0.54991504  0.99256627    -0.88600
O219        O  0.10799091  0.56395206  0.05361356    -0.88700
O220        O  0.11290524  0.58943538  0.01897865    -0.75700
Mg221      Mg  0.16711001  0.55879216  0.10410577     1.58000
O222        O  0.12234729  0.55708814  0.15416066    -0.83100
H223        H  0.18816860  0.55286883  0.01064798    -0.06800
O224        O  0.15830058  0.59689196  0.99105144    -0.88400
H225        H  0.15930600  0.62585971  0.99709912    -0.06600
H226        H  0.11626894  0.52134695  0.97667400    -0.06800
C227        C  0.16534042  0.61500666  0.00475774     0.86700
C228        C  0.18349507  0.56046000  0.02927979     0.87300
C229        C  0.12717290  0.53890660  0.98070585     0.87400
H230        H  0.10162150  0.58826044  0.06391504    -0.06800
O231        O  0.14573208  0.59488220  0.10407105    -0.75800
Mg232      Mg  0.12469532  0.58052976  0.97275399     1.58000
H233        H  0.17803911  0.61927148  0.10346041    -0.06800
C234        C  0.22705010  0.62985162  0.99112887     0.92400
O235        O  0.17161177  0.58653129  0.92392640    -0.83100
C236        C  0.15333302  0.57897313  0.90870150     0.92400
O237        O  0.20379621  0.57287891  0.11967712    -0.83000
Mg238      Mg  0.11501371  0.56039274  0.10264752     1.58200
O239        O  0.21051746  0.61790939  0.97273620    -0.81400
O240        O  0.06385060  0.51632854  0.06141139    -0.83100
O241        O  0.18661498  0.60045672  0.55419851    -0.88700
C242        C  0.16444444  0.55749902  0.47949286     0.87400
Mg243      Mg  0.18182457  0.58995980  0.60280040     1.58100
O244        O  0.13468672  0.58501653  0.49160701    -0.88400
O245        O  0.17997250  0.62141719  0.52223089    -0.75700
C246        C  0.07363364  0.51784259  0.61124371     0.92400
O247        O  0.17946723  0.55140886  0.54866764    -0.75500
O248        O  0.09236867  0.52297353  0.62365072    -0.83000
Mg249      Mg  0.19903146  0.58486799  0.52299339     1.58000
C250        C  0.06587769  0.54943095  0.48861254     0.92400
O251        O  0.22104051  0.61766407  0.49828668    -0.81300
H252        H  0.13339560  0.61298812  0.49431781    -0.06600
C253        C  0.10657474  0.52315034  0.53175694     0.87300
O254        O  0.15214394  0.59622949  0.60573523    -0.75800
O255        O  0.17229836  0.57625060  0.49123624    -0.88600
O256        O  0.08332046  0.55397392  0.47309758    -0.81400
C257        C  0.13890823  0.57304275  0.40931255     0.92500
C258        C  0.22159983  0.62920716  0.47453806     0.92300
Mg259      Mg  0.09458583  0.55713209  0.55421658     1.58000
O260        O  0.07205419  0.52582968  0.58456383    -0.81300
O261        O  0.11394556  0.58967042  0.52642387    -0.75500
O262        O  0.15695038  0.58684041  0.42366218    -0.81400
O263        O  0.22752214  0.59297231  0.55483906    -0.83100
O264        O  0.13915119  0.55691038  0.65392628    -0.81400
C265        C  0.12749662  0.59647013  0.50334885     0.86800
O266        O  0.12271171  0.56687634  0.58631199    -0.88600
O267        O  0.10793890  0.54107396  0.52529869    -0.88700
O268        O  0.11347958  0.52000779  0.55825347    -0.75700
Mg269      Mg  0.16800528  0.60283614  0.47422044     1.58000
O270        O  0.12107799  0.56080644  0.42448945    -0.83100
H271        H  0.19239541  0.63053270  0.56714113    -0.06800
O272        O  0.16048633  0.55655330  0.58601676    -0.88400
H273        H  0.16024877  0.52790876  0.58075311    -0.06600
H274        H  0.12140652  0.59295523  0.60368543    -0.06800
C275        C  0.16659734  0.54469671  0.57257063     0.86700
C276        C  0.18681460  0.61799203  0.54864474     0.87300
C277        C  0.13148541  0.58548868  0.59884674     0.87400
H278        H  0.09993229  0.51003905  0.51405112    -0.06800
O279        O  0.14374385  0.54519621  0.47455616    -0.75800
Mg280      Mg  0.12722959  0.54044522  0.60439734     1.58000
H281        H  0.17538924  0.55100856  0.47474038    -0.06800
C282        C  0.22957537  0.59074279  0.58438611     0.92400
O283        O  0.17585889  0.57939124  0.65469587    -0.83100
C284        C  0.15739754  0.56853919  0.66910018     0.92400
O285        O  0.20421234  0.62388673  0.45778255    -0.83000
Mg286      Mg  0.11440078  0.55118509  0.47645690     1.58200
O287        O  0.21403066  0.58697119  0.60394900    -0.81400
O288        O  0.06514859  0.54734717  0.51892666    -0.83100
O289        O  0.81261091  0.39577954  0.30122430    -0.88700
C290        C  0.83147991  0.43930639  0.22705766     0.87400
Mg291      Mg  0.81793286  0.40610623  0.34976520     1.58100
O292        O  0.86339348  0.41331530  0.23504848    -0.88400
O293        O  0.82019788  0.37587705  0.26810993    -0.75700
C294        C  0.92604531  0.47877422  0.35693822     0.92400
O295        O  0.81772550  0.44405148  0.29846505    -0.75500
O296        O  0.90759542  0.47313526  0.37033491    -0.83000
Mg297      Mg  0.79847775  0.41047302  0.27204090     1.58000
C298        C  0.93086172  0.45014589  0.23006819     0.92400
O299        O  0.77772336  0.37732468  0.24691700    -0.81300
H300        H  0.86616356  0.38614316  0.23470904    -0.06600
C301        C  0.89077089  0.47471878  0.27897948     0.87300
O302        O  0.84812960  0.40034691  0.35079101    -0.75800
O303        O  0.82584650  0.42084879  0.23970346    -0.88600
O304        O  0.91327649  0.44652925  0.21539070    -0.81400
C305        C  0.85500968  0.42427980  0.15470706     0.92500
C306        C  0.77702806  0.36584405  0.22287536     0.92300
Mg307      Mg  0.90400901  0.44092438  0.29736704     1.58000
O308        O  0.92694455  0.47172155  0.32907882    -0.81300
O309        O  0.88515805  0.40884332  0.26835247    -0.75500
O310        O  0.83862781  0.40944342  0.17030496    -0.81400
O311        O  0.77032994  0.40101276  0.30408583    -0.83100
O312        O  0.86118206  0.43826636  0.40063136    -0.81400
C313        C  0.87152713  0.40227350  0.24512093     0.86800
O314        O  0.87654393  0.43001638  0.33078100    -0.88600
O315        O  0.88936610  0.45703662  0.27061863    -0.88700
O316        O  0.88475980  0.47722471  0.30650599    -0.75700
Mg317      Mg  0.82993958  0.39387256  0.21981792     1.58000
O318        O  0.87312989  0.43835603  0.16844296    -0.83100
H319        H  0.80910874  0.36645333  0.31317650    -0.06800
O320        O  0.83857710  0.43966557  0.33392140    -0.88400
H321        H  0.83792000  0.46794408  0.33012452    -0.06600
H322        H  0.87905894  0.40429511  0.34659630    -0.06800
C323        C  0.83163419  0.45118852  0.32154192     0.86700
C324        C  0.81350582  0.37884338  0.29491212     0.87300
C325        C  0.86852729  0.41141338  0.34287735     0.87400
H326        H  0.89679617  0.48822228  0.26221183    -0.06800
O327        O  0.85165865  0.45282104  0.22105895    -0.75800
Mg328      Mg  0.87219966  0.45586355  0.35173282     1.58000
H329        H  0.81911981  0.44415509  0.22312582    -0.06800
C330        C  0.76989366  0.40582027  0.33307227     0.92400
O331        O  0.82454526  0.41561656  0.40179397    -0.83100
C332        C  0.84331579  0.42602208  0.41591579     0.92400
O333        O  0.79365304  0.37189404  0.20466176    -0.83000
Mg334      Mg  0.88166923  0.44774394  0.22099347     1.58200
O335        O  0.78603043  0.41009893  0.35217085    -0.81400
O336        O  0.93237879  0.45152399  0.26051669    -0.83100
O337        O  0.81134935  0.39499537  0.80178279    -0.88700
C338        C  0.83050886  0.43555398  0.72477544     0.87400
Mg339      Mg  0.81713453  0.40634259  0.84999819     1.58100
O340        O  0.86296320  0.41085768  0.73725189    -0.88400
O341        O  0.81948156  0.37443081  0.77118222    -0.75700
C342        C  0.92475682  0.48119871  0.85417019     0.92400
O343        O  0.81772495  0.44353156  0.79485888    -0.75500
O344        O  0.90649816  0.47560384  0.86807826    -0.83000
Mg345      Mg  0.79790719  0.40948730  0.77024604     1.58000
C346        C  0.93168978  0.44904004  0.73349877     0.92400
O347        O  0.77538916  0.37623497  0.74587097    -0.81300
H348        H  0.86594489  0.38383251  0.73948853    -0.06600
C349        C  0.88901140  0.47319993  0.77586042     0.87300
O350        O  0.84751792  0.40110950  0.85190858    -0.75800
O351        O  0.82390042  0.41751049  0.73793134    -0.88600
O352        O  0.91441162  0.44396902  0.71660721    -0.81400
C353        C  0.85465765  0.41868512  0.65518233     0.92500
C354        C  0.77520128  0.36384689  0.72342415     0.92300
Mg355      Mg  0.90306004  0.44084596  0.79867949     1.58000
O356        O  0.92534576  0.47302627  0.82717242    -0.81300
O357        O  0.88479548  0.40767237  0.77193922    -0.75500
O358        O  0.83783742  0.40494095  0.67131429    -0.81400
O359        O  0.77041450  0.40219153  0.80309142    -0.83100
O360        O  0.86065921  0.44098053  0.89983552    -0.81400
C361        C  0.87116533  0.40023859  0.74870721     0.86800
O362        O  0.87558799  0.43069980  0.83129253    -0.88600
O363        O  0.88855595  0.45567229  0.76917307    -0.88700
O364        O  0.88278082  0.47636145  0.80287020    -0.75700
Mg365      Mg  0.82915124  0.39113648  0.72237492     1.58000
O366        O  0.87303078  0.43258652  0.66855837    -0.83100
H367        H  0.80778385  0.36609058  0.81614496    -0.06800
O368        O  0.83736047  0.43971694  0.83292143    -0.88400
H369        H  0.83703392  0.46794816  0.82635160    -0.06600
H370        H  0.87871356  0.40568247  0.84861769    -0.06800
C371        C  0.83080195  0.45098273  0.81881099     0.86700
C372        C  0.81232408  0.37795567  0.79708047     0.87300
C373        C  0.86790590  0.41240190  0.84420202     0.87400
H374        H  0.89440221  0.48599813  0.75801996    -0.06800
O375        O  0.85087593  0.44832319  0.71860577    -0.75800
Mg376      Mg  0.87100992  0.45691960  0.84996293     1.58000
H377        H  0.81876658  0.44106246  0.71978751    -0.06800
C378        C  0.76901034  0.40530458  0.83256355     0.92400
O379        O  0.82426612  0.41704319  0.90160180    -0.83100
C380        C  0.84304181  0.42849656  0.91543615     0.92400
O381        O  0.79272644  0.36811806  0.70823102    -0.83000
Mg382      Mg  0.88150613  0.44434024  0.72027837     1.58200
O383        O  0.78475056  0.40910581  0.85213030    -0.81400
O384        O  0.93167008  0.45087483  0.76377218    -0.83100
O385        O  0.60298538  0.18545479  0.12024563    -0.88700
C386        C  0.55973230  0.16670945  0.19320749     0.87400
Mg387      Mg  0.59287270  0.17907752  0.07148586     1.58100
O388        O  0.58746883  0.13680443  0.18699974    -0.88400
O389        O  0.62401444  0.18039049  0.15457235    -0.75700
C390        C  0.52137619  0.07086598  0.06753862     0.92400
O391        O  0.55401851  0.17889515  0.12214202    -0.75500
O392        O  0.52626671  0.08901722  0.05388997    -0.83000
Mg393      Mg  0.58754489  0.19930923  0.14860634     1.58000
C394        C  0.55281313  0.06873356  0.19305131     0.92400
O395        O  0.62048328  0.22135925  0.17306512    -0.81300
H396        H  0.61572853  0.13583983  0.18682368    -0.06600
C397        C  0.52570490  0.10676264  0.14405685     0.87300
O398        O  0.59966248  0.14979848  0.07167939    -0.75800
O399        O  0.57865180  0.17408095  0.18247455    -0.88600
O400        O  0.55618204  0.08609106  0.20802942    -0.81400
C401        C  0.57547421  0.14439825  0.26746244     0.92500
C402        C  0.63226415  0.22319963  0.19739832     0.92300
Mg403      Mg  0.56056497  0.09481590  0.12560453     1.58000
O404        O  0.52950060  0.07050406  0.09485759    -0.81300
O405        O  0.59286826  0.11545685  0.15420508    -0.75500
O406        O  0.58946206  0.16177671  0.25256675    -0.81400
O407        O  0.59606772  0.22668883  0.11467441    -0.83100
O408        O  0.56035056  0.13500355  0.02190623    -0.81400
C409        C  0.59923200  0.12950098  0.17686233     0.86800
O410        O  0.57011494  0.12132715  0.09165253    -0.88600
O411        O  0.54370195  0.10857003  0.15200703    -0.88700
O412        O  0.52268721  0.11251622  0.11662315    -0.75700
Mg413      Mg  0.60531575  0.17060899  0.20227893     1.58000
O414        O  0.56285425  0.12619564  0.25292945    -0.83100
H415        H  0.63316111  0.19063092  0.10910646    -0.06800
O416        O  0.55930336  0.15832748  0.08746639    -0.88400
H417        H  0.53057483  0.15834276  0.09017612    -0.06600
H418        H  0.59623037  0.11923541  0.07640289    -0.06800
C419        C  0.54736141  0.16499524  0.09915820     0.86700
C420        C  0.62057239  0.18592466  0.12716713     0.87300
C421        C  0.58879646  0.12950495  0.07968081     0.87400
H422        H  0.51240556  0.10073428  0.16120348    -0.06800
O423        O  0.54732811  0.14629105  0.19914656    -0.75800
Mg424      Mg  0.54345564  0.12460667  0.07100545     1.58000
H425        H  0.55318332  0.17777816  0.19610658    -0.06800
C426        C  0.59246367  0.22669444  0.08505315     0.92400
O427        O  0.58316656  0.17146409  0.01946039    -0.83100
C428        C  0.57235448  0.15256395  0.00597779     0.92400
O429        O  0.62654185  0.20725105  0.21682050    -0.83000
Mg430      Mg  0.55340407  0.11705665  0.20107748     1.58200
O431        O  0.58849210  0.21018159  0.06721950    -0.81400
O432        O  0.55143633  0.06744323  0.16265578    -0.83100
O433        O  0.59870596  0.18583157  0.61993566    -0.88700
C434        C  0.55685839  0.16509721  0.69465033     0.87400
Mg435      Mg  0.58734843  0.17839402  0.57195344     1.58100
O436        O  0.58510200  0.13582813  0.68486087    -0.88400
O437        O  0.62046289  0.17999887  0.65165628    -0.75700
C438        C  0.51737385  0.06930692  0.56976297     0.92400
O439        O  0.54912708  0.17725206  0.62480909    -0.75500
O440        O  0.52200530  0.08752108  0.55656359    -0.83000
Mg441      Mg  0.58302865  0.19875620  0.64996683     1.58000
C442        C  0.55193553  0.06759529  0.69312666     0.92400
O443        O  0.61649213  0.22250743  0.67444633    -0.81300
H444        H  0.61350660  0.13512755  0.68433762    -0.06600
C445        C  0.52240797  0.10486721  0.64660450     0.87300
O446        O  0.59457678  0.14929131  0.57219733    -0.75800
O447        O  0.57564171  0.17320246  0.68304880    -0.88600
O448        O  0.55562965  0.08515204  0.70784611    -0.81400
C449        C  0.57558034  0.14360199  0.76640945     0.92500
C450        C  0.62858296  0.22308694  0.69782726     0.92300
Mg451      Mg  0.55717675  0.09319183  0.62596340     1.58000
O452        O  0.52543287  0.06870017  0.59696820    -0.81300
O453        O  0.59016725  0.11397484  0.65284128    -0.75500
O454        O  0.58873404  0.16092530  0.75078785    -0.81400
O455        O  0.58933951  0.22566285  0.61584389    -0.83100
O456        O  0.55474120  0.13335205  0.52321599    -0.81400
C457        C  0.59685215  0.12849916  0.67483007     0.86800
O458        O  0.56582274  0.12007420  0.59252115    -0.88600
O459        O  0.54053834  0.10659220  0.65352045    -0.88700
O460        O  0.51887321  0.11084515  0.61964344    -0.75700
Mg461      Mg  0.60292922  0.16966240  0.69988381     1.58000
O462        O  0.56288705  0.12515741  0.75261050    -0.83100
H463        H  0.62870254  0.19160568  0.60660666    -0.06800
O464        O  0.55423149  0.15701844  0.58932209    -0.88400
H465        H  0.52513665  0.15607615  0.59397984    -0.06600
H466        H  0.59252575  0.11930060  0.57671953    -0.06800
C467        C  0.54220760  0.16323633  0.60197026     0.86700
C468        C  0.61650253  0.18637375  0.62533288     0.87300
C469        C  0.58446515  0.12897051  0.58027161     0.87400
H470        H  0.50946142  0.09876395  0.66431713    -0.06800
O471        O  0.54518915  0.14458481  0.70073629    -0.75800
Mg472      Mg  0.53870030  0.12306558  0.57316861     1.58000
H473        H  0.54974592  0.17561831  0.69830698    -0.06800
C474        C  0.58626408  0.22595920  0.58604327     0.92400
O475        O  0.57664944  0.16994908  0.52043557    -0.83100
C476        C  0.56626480  0.15096149  0.50710294     0.92400
O477        O  0.62388427  0.20589162  0.71406326    -0.83000
Mg478      Mg  0.55182935  0.11565250  0.70165040     1.58200
O479        O  0.58296270  0.20973796  0.56791261    -0.81400
O480        O  0.54920697  0.06571363  0.66287584    -0.83100
O481        O  0.41461514  0.81263259  0.39326556    -0.88700
C482        C  0.39262217  0.83292509  0.31714224     0.87400
Mg483      Mg  0.41079872  0.81931476  0.44178673     1.58100
O484        O  0.45036082  0.86302070  0.32720909    -0.88400
O485        O  0.44176415  0.81888393  0.36059336    -0.75700
C486        C  0.44690977  0.92712142  0.44483714     0.92400
O487        O  0.37312011  0.82072340  0.38802885    -0.75500
O488        O  0.43370005  0.90897149  0.45832477    -0.83000
Mg489      Mg  0.38585959  0.79998905  0.36296530     1.58000
C490        C  0.48358151  0.93142020  0.32261824     0.92400
O491        O  0.39564679  0.77682548  0.33887888    -0.81300
H492        H  0.47981853  0.86446795  0.32899149    -0.06600
C493        C  0.41687134  0.89148944  0.36681800     0.87300
O494        O  0.44697625  0.84873094  0.44184426    -0.75800
O495        O  0.40373141  0.82563534  0.32981732    -0.88600
O496        O  0.47074673  0.91407191  0.30640598    -0.81400
C497        C  0.43226320  0.85560051  0.24533211     0.92500
C498        C  0.40631329  0.77589719  0.31495038     0.92300
Mg499      Mg  0.46350170  0.90418531  0.38842157     1.58000
O500        O  0.45548744  0.92763922  0.41776973    -0.81300
O501        O  0.47653167  0.88446306  0.36107314    -0.75500
O502        O  0.42833584  0.83831658  0.26102668    -0.81400
O503        O  0.36527339  0.77299445  0.39668176    -0.83100
O504        O  0.42237094  0.86394529  0.49008359    -0.81400
C505        C  0.46933154  0.87049936  0.33828115     0.86800
O506        O  0.44609765  0.87722063  0.42142974    -0.88600
O507        O  0.43357579  0.89039288  0.35990402    -0.88700
O508        O  0.40771018  0.88552710  0.39391958    -0.75700
Mg509      Mg  0.43416848  0.82920410  0.31218074     1.58000
O510        O  0.43826190  0.87408278  0.25921891    -0.83100
H511        H  0.43954517  0.80758451  0.40569994    -0.06800
O512        O  0.39824540  0.84012095  0.42458800    -0.88400
H513        H  0.36991759  0.84077644  0.42009288    -0.06600
H514        H  0.47427971  0.87927871  0.43733547    -0.06800
C515        C  0.37996517  0.83397643  0.41172668     0.86700
C516        C  0.43200389  0.81253351  0.38726682     0.87300
C517        C  0.45652152  0.86902278  0.43378535     0.87400
H518        H  0.40952541  0.89712935  0.34904472    -0.06800
O519        O  0.40102126  0.85328385  0.31047464    -0.75800
Mg520      Mg  0.41588498  0.87374739  0.44070825     1.58000
H521        H  0.37506786  0.82183725  0.31287671    -0.06800
C522        C  0.36185068  0.77223820  0.42644201     0.92400
O523        O  0.40905288  0.82763406  0.49384948    -0.83100
C524        C  0.41731286  0.84679176  0.50664726     0.92400
O525        O  0.41821421  0.79287090  0.29793085    -0.83000
Mg526      Mg  0.43649299  0.88273345  0.31102556     1.58200
O527        O  0.37507388  0.78777721  0.44541012    -0.81400
O528        O  0.48205046  0.93216482  0.35283292    -0.83100
O529        O  0.41537685  0.81279426  0.89051755    -0.88700
C530        C  0.39454886  0.83435630  0.81506304     0.87400
Mg531      Mg  0.40993725  0.81829488  0.93915182     1.58100
O532        O  0.45195721  0.86451484  0.82850171    -0.88400
O533        O  0.44321536  0.81949671  0.85914626    -0.75700
C534        C  0.44587292  0.92658564  0.94671214     0.92400
O535        O  0.37355842  0.82003742  0.88430576    -0.75500
O536        O  0.43243231  0.90825247  0.95979840    -0.83000
Mg537      Mg  0.38735350  0.80027103  0.85870719     1.58000
C538        C  0.48525849  0.93272220  0.82621109     0.92400
O539        O  0.39776190  0.77787808  0.83294403    -0.81300
H540        H  0.48130347  0.86580868  0.83155001    -0.06600
C541        C  0.41772572  0.89252404  0.86735538     0.87300
O542        O  0.44586352  0.84797802  0.94212437    -0.75800
O543        O  0.40556211  0.82682175  0.82735268    -0.88600
O544        O  0.47221350  0.91571249  0.80962393    -0.81400
C545        C  0.43606317  0.85923634  0.74591073     0.92500
C546        C  0.40877766  0.77789525  0.80877951     0.92300
Mg547      Mg  0.46368563  0.90447473  0.89087137     1.58000
O548        O  0.45479949  0.92737193  0.91985586    -0.81300
O549        O  0.47728324  0.88516975  0.86391928    -0.75500
O550        O  0.43213747  0.84179279  0.76101255    -0.81400
O551        O  0.36672689  0.77218404  0.89053706    -0.83100
O552        O  0.41894976  0.86135326  0.98966697    -0.81400
C553        C  0.47063347  0.87171509  0.84051523     0.86800
O554        O  0.44540213  0.87693098  0.92272275    -0.88600
O555        O  0.43434493  0.89111806  0.86113749    -0.88700
O556        O  0.40780919  0.88607075  0.89385095    -0.75700
Mg557      Mg  0.43669050  0.83128684  0.81120467     1.58000
O558        O  0.44127142  0.87731473  0.76036803    -0.83100
H559        H  0.43974865  0.80709975  0.90378710    -0.06800
O560        O  0.39755224  0.83942781  0.92214576    -0.88400
H561        H  0.36900866  0.83946229  0.91596227    -0.06600
H562        H  0.47310095  0.87876878  0.94033089    -0.06800
C563        C  0.37958582  0.83312314  0.90820326     0.86700
C564        C  0.43280610  0.81262833  0.88525328     0.87300
C565        C  0.45550797  0.86850243  0.93538699     0.87400
H566        H  0.41112432  0.89886573  0.84947894    -0.06800
O567        O  0.40284836  0.85490335  0.80988200    -0.75800
Mg568      Mg  0.41458950  0.87292231  0.94034656     1.58000
H569        H  0.37710384  0.82327678  0.80997318    -0.06800
C570        C  0.36244014  0.77060984  0.92005727     0.92400
O571        O  0.40626441  0.82505071  0.99160792    -0.83100
C572        C  0.41350399  0.84377587  0.00544914     0.92400
O573        O  0.42145490  0.79566023  0.79381469    -0.83000
Mg574      Mg  0.43820517  0.88444523  0.81235014     1.58200
O575        O  0.37454026  0.78614308  0.93983807    -0.81400
O576        O  0.48348059  0.93315849  0.85643306    -0.83100
C577        C  0.42106318  0.84943229  0.54167535    -0.01600
C578        C  0.42910730  0.87026474  0.55621830    -0.09600
C579        C  0.43242909  0.87293204  0.58918205    -0.18500
C580        C  0.42779441  0.85473094  0.60892757     0.03900
C581        C  0.41995892  0.83371105  0.59402760     0.18100
C582        C  0.41669063  0.83126907  0.56082765    -0.19900
C583        C  0.41526048  0.81515491  0.61235279    -0.21100
C584        C  0.41790900  0.81691009  0.64527781    -0.19700
C585        C  0.42530109  0.83726350  0.66074599     0.19500
C586        C  0.43046446  0.85653015  0.64286156     0.01600
C587        C  0.43785062  0.87664523  0.65981548    -0.14400
C588        C  0.43974840  0.87747321  0.69304829    -0.12100
C589        C  0.43445789  0.85838200  0.71057629     0.01200
C590        C  0.42737480  0.83836192  0.69412060    -0.24300
H591        H  0.43277546  0.88466819  0.54208093     0.09200
H592        H  0.43856284  0.88944023  0.59844293     0.12700
H593        H  0.41062028  0.81510248  0.54991719     0.11500
H594        H  0.40936265  0.79911046  0.60114924     0.12700
H595        H  0.41399694  0.80217802  0.65877726     0.11700
H596        H  0.44216697  0.89201447  0.64815037     0.08800
H597        H  0.44534700  0.89319854  0.70505582     0.12000
H598        H  0.42322763  0.82344854  0.70732405     0.13900
C599        C  0.42961380  0.85424374  0.20997451    -0.01600
C600        C  0.43214673  0.87257110  0.19273006    -0.09600
C601        C  0.42937673  0.87153065  0.15963137    -0.18500
C602        C  0.42398368  0.85198981  0.14233125     0.03900
C603        C  0.42142943  0.83341502  0.15980925     0.18100
C604        C  0.42423911  0.83468366  0.19320501    -0.19900
C605        C  0.41606127  0.81365146  0.14385363    -0.21100
C606        C  0.41318771  0.81190280  0.11088577    -0.19700
C607        C  0.41566459  0.82988915  0.09292942     0.19500
C608        C  0.42109654  0.85021202  0.10838762     0.01600
C609        C  0.42351870  0.86788915  0.08913904    -0.14400
C610        C  0.42090648  0.86556034  0.05607990    -0.12100
C611        C  0.41565860  0.84555748  0.04081026     0.01200
C612        C  0.41290274  0.82770818  0.05953379    -0.24300
H613        H  0.43620144  0.88789262  0.20488504     0.09200
H614        H  0.43155300  0.88633744  0.14834674     0.12700
H615        H  0.42220835  0.82035236  0.20614005     0.11500
H616        H  0.41407558  0.79941166  0.15698187     0.12700
H617        H  0.40906927  0.79636349  0.09932896     0.11700
H618        H  0.42756287  0.88381577  0.09882167     0.08800
H619        H  0.42306060  0.87965045  0.04239574     0.12000
H620        H  0.40887972  0.81215202  0.04810023     0.13900
C621        C  0.50172001  0.95279518  0.80891741    -0.01600
C622        C  0.51277227  0.97356035  0.82403866    -0.09600
C623        C  0.52504773  0.99291326  0.80632992    -0.18500
C624        C  0.52636598  0.99208590  0.77267822     0.03900
C625        C  0.51617320  0.97088699  0.75776741     0.18100
C626        C  0.50440784  0.95160609  0.77593021    -0.19900
C627        C  0.51660012  0.96903366  0.72455868    -0.21100
C628        C  0.52550758  0.98781037  0.70555075    -0.19700
C629        C  0.53459597  0.00892300  0.71931883     0.19500
C630        C  0.53612435  0.01142616  0.75310782     0.01600
C631        C  0.54640173  0.03315605  0.76574396    -0.14400
C632        C  0.55275658  0.05135386  0.74589334    -0.12100
C633        C  0.54927997  0.04866057  0.71274467     0.01200
C634        C  0.54115458  0.02744910  0.69952033    -0.24300
H635        H  0.51109293  0.97498859  0.84946588     0.09200
H636        H  0.53240675  0.00829821  0.81950601     0.12700
H637        H  0.49617817  0.93563303  0.76390525     0.11500
H638        H  0.50905775  0.95288755  0.71309519     0.12700
H639        H  0.52464193  0.98575164  0.67986369     0.11700
H640        H  0.54919719  0.03659571  0.79093618     0.08800
H641        H  0.55961966  0.06759040  0.75686745     0.12000
H642        H  0.53876465  0.02513480  0.67393255     0.13900
C643        C  0.45346335  0.94816299  0.46201083    -0.01600
C644        C  0.46399118  0.96839425  0.44593661    -0.09600
C645        C  0.47242275  0.98841245  0.46261104    -0.18500
C646        C  0.47101973  0.98888270  0.49625028     0.03900
C647        C  0.46018855  0.96831362  0.51248115     0.18100
C648        C  0.45109509  0.94826399  0.49526782    -0.19900
C649        C  0.45936332  0.96789590  0.54586765    -0.21100
C650        C  0.46997801  0.98750792  0.56356756    -0.19700
C651        C  0.48101600  0.00805834  0.54830085     0.19500
C652        C  0.48086679  0.00901038  0.51441024     0.01600
C653        C  0.49089746  0.03010016  0.50010686    -0.14400
C654        C  0.50180367  0.04936809  0.51846347    -0.12100
C655        C  0.50331808  0.04845875  0.55170812     0.01200
C656        C  0.49252926  0.02768991  0.56659932    -0.24300
H657        H  0.46611984  0.96879357  0.42033660     0.09200
H658        H  0.48075502  0.00324034  0.44854764     0.12700
H659        H  0.44323820  0.93270801  0.50806672     0.11500
H660        H  0.45110320  0.95225774  0.55841508     0.12700
H661        H  0.46967949  0.98658651  0.58936618     0.11700
H662        H  0.49064618  0.03231084  0.47473343     0.08800
H663        H  0.50977769  0.06513891  0.50627603     0.12000
H664        H  0.49326131  0.02678981  0.59234946     0.13900
C665        C  0.57493265  0.14470870  0.80163575    -0.01600
C666        C  0.56155306  0.12540099  0.81894811    -0.09600
C667        C  0.56082821  0.12591667  0.85208570    -0.18500
C668        C  0.57354176  0.14591160  0.86929525     0.03900
C669        C  0.58672584  0.16559765  0.85168681     0.18100
C670        C  0.58743256  0.16481571  0.81822106    -0.19900
C671        C  0.59904892  0.18594183  0.86759451    -0.21100
C672        C  0.59850997  0.18717553  0.90066603    -0.19700
C673        C  0.58591876  0.16804312  0.91869617     0.19500
C674        C  0.57346799  0.14708816  0.90328936     0.01600
C675        C  0.56157847  0.12819274  0.92261399    -0.14400
C676        C  0.56153738  0.13009744  0.95569370    -0.12100
C677        C  0.57332017  0.15082220  0.97082500     0.01200
C678        C  0.58566916  0.16973771  0.95210005    -0.24300
H679        H  0.55155007  0.10964910  0.80685577     0.09200
H680        H  0.54997831  0.11035951  0.86343703     0.12700
H681        H  0.59767799  0.17992427  0.80510513     0.11500
H682        H  0.60906917  0.20103807  0.85435126     0.12700
H683        H  0.60809782  0.20320561  0.91223809     0.11700
H684        H  0.55219621  0.11163726  0.91299092     0.08800
H685        H  0.55205478  0.11515861  0.96946969     0.12000
H686        H  0.59503006  0.18586968  0.96348481     0.13900
C687        C  0.56752017  0.14932079  0.47193037    -0.01600
C688        C  0.55436261  0.12908790  0.45604424    -0.09600
C689        C  0.55516183  0.12750265  0.42292367    -0.18500
C690        C  0.56930335  0.14621790  0.40437686     0.03900
C691        C  0.58295915  0.16661310  0.42062302     0.18100
C692        C  0.58189576  0.16799558  0.45396090    -0.19900
C693        C  0.59758301  0.18554646  0.40350664    -0.21100
C694        C  0.59889592  0.18471500  0.37049257    -0.19700
C695        C  0.58549823  0.16496750  0.35369253     0.19500
C696        C  0.57043285  0.14544496  0.37037817     0.01600
C697        C  0.55706527  0.12603548  0.35225765    -0.14400
C698        C  0.55875207  0.12594297  0.31915097    -0.12100
C699        C  0.57377800  0.14510908  0.30271726     0.01200
C700        C  0.58707215  0.16463066  0.32025099    -0.24300
H701        H  0.54321074  0.11434907  0.46924015     0.09200
H702        H  0.54451362  0.11135286  0.41262175     0.12700
H703        H  0.59235544  0.18372228  0.46592600     0.11500
H704        H  0.60810656  0.20113369  0.41575362     0.12700
H705        H  0.61041856  0.19966862  0.35799162     0.11700
H706        H  0.54504959  0.11061426  0.36288643     0.08800
H707        H  0.54817727  0.11061729  0.30637903     0.12000
H708        H  0.59870785  0.17961871  0.30790178     0.13900
C709        C  0.54883965  0.04920940  0.21222212    -0.01600
C710        C  0.54427283  0.02925707  0.19759813    -0.09600
C711        C  0.53703729  0.00999609  0.21558420    -0.18500
C712        C  0.53374699  0.01001840  0.24889321     0.03900
C713        C  0.53973374  0.03060589  0.26382249     0.18100
C714        C  0.54743604  0.04987954  0.24558323    -0.19900
C715        C  0.53698459  0.03170594  0.29669062    -0.21100
C716        C  0.52731489  0.01257065  0.31491539    -0.19700
C717        C  0.52016015  0.99186362  0.30072606     0.19500
C718        C  0.52376336  0.99030445  0.26767031     0.01600
C719        C  0.51618553  0.96895993  0.25460737    -0.14400
C720        C  0.50417294  0.94998340  0.27299120    -0.12100
C721        C  0.49960669  0.95155626  0.30511113     0.01200
C722        C  0.50844098  0.97261870  0.31912158    -0.24300
H723        H  0.54554755  0.02830906  0.17198409     0.09200
H724        H  0.53345578  0.99521757  0.20254122     0.12700
H725        H  0.55117266  0.06524193  0.25739362     0.11500
H726        H  0.54169919  0.04740901  0.30823163     0.12700
H727        H  0.52478060  0.01391316  0.34011418     0.11700
H728        H  0.51859362  0.96630877  0.22998780     0.08800
H729        H  0.49781884  0.93392317  0.26164334     0.12000
H730        H  0.50504537  0.97406647  0.34394439     0.13900
C731        C  0.45252392  0.94764406  0.96399266    -0.01600
C732        C  0.46004607  0.96749504  0.94734091    -0.09600
C733        C  0.46901248  0.98778837  0.96358148    -0.18500
C734        C  0.47138672  0.98896741  0.99721766     0.03900
C735        C  0.46340386  0.96872147  0.01401286     0.18100
C736        C  0.45364650  0.94836180  0.99742799    -0.19900
C737        C  0.46608149  0.96895666  0.04715854    -0.21100
C738        C  0.47731475  0.98890698  0.06391538    -0.19700
C739        C  0.48571571  0.00916149  0.04809342     0.19500
C740        C  0.48224399  0.00947960  0.01466376     0.01600
C741        C  0.49023552  0.03035087  0.00011792    -0.14400
C742        C  0.50213732  0.05000647  0.01764824    -0.12100
C743        C  0.50663246  0.04970379  0.05027091     0.01200
C744        C  0.49796862  0.02911972  0.06543305    -0.24300
H745        H  0.45935882  0.96737221  0.92152358     0.09200
H746        H  0.47472634  0.00232468  0.94902546     0.12700
H747        H  0.44815057  0.93311769  0.01052806     0.11500
H748        H  0.46002947  0.95359183  0.06012526     0.12700
H749        H  0.47965857  0.98848650  0.08942160     0.11700
H750        H  0.48770035  0.03206385  0.97515416     0.08800
H751        H  0.50840199  0.06559116  0.00523161     0.12000
H752        H  0.50103847  0.02859360  0.09070456     0.13900
C753        C  0.64960844  0.24386704  0.70468310    -0.01600
C754        C  0.66826972  0.24276111  0.71478062    -0.09600
C755        C  0.68907740  0.26188448  0.71747812    -0.18500
C756        C  0.69186540  0.28297081  0.71065025     0.03900
C757        C  0.67263003  0.28417141  0.70223106     0.18100
C758        C  0.65186133  0.26466543  0.69857691    -0.19900
C759        C  0.67429352  0.30482224  0.69744402    -0.21100
C760        C  0.69463865  0.32432428  0.70103422    -0.19700
C761        C  0.71400451  0.32363760  0.70815265     0.19500
C762        C  0.71299002  0.30290103  0.71221039     0.01600
C763        C  0.73321916  0.30301598  0.71716512    -0.14400
C764        C  0.75346421  0.32290024  0.71898290    -0.12100
C765        C  0.75419049  0.34324088  0.71659682     0.01200
C766        C  0.73443026  0.34356112  0.71125223    -0.24300
H767        H  0.66695340  0.22687543  0.71951246     0.09200
H768        H  0.70262471  0.25962870  0.72522513     0.12700
H769        H  0.63743138  0.26565138  0.69099518     0.11500
H770        H  0.65970084  0.30591355  0.69128318     0.12700
H771        H  0.69529419  0.34005317  0.69769401     0.11700
H772        H  0.73398075  0.28801269  0.71937766     0.08800
H773        H  0.76858585  0.32240520  0.72347570     0.12000
H774        H  0.73501037  0.35936053  0.70942426     0.13900
C775        C  0.65363310  0.24410626  0.20127200    -0.01600
C776        C  0.66384304  0.25676950  0.17411669    -0.09600
C777        C  0.68441137  0.27610048  0.17616162    -0.18500
C778        C  0.69544099  0.28374741  0.20575279     0.03900
C779        C  0.68475989  0.27124564  0.23347190     0.18100
C780        C  0.66427544  0.25132386  0.23092144    -0.19900
C781        C  0.69441084  0.27894030  0.26357401    -0.21100
C782        C  0.71409226  0.29908472  0.26682057    -0.19700
C783        C  0.72503505  0.31157643  0.23993715     0.19500
C784        C  0.71634836  0.30371221  0.20890723     0.01600
C785        C  0.72901848  0.31616780  0.18245506    -0.14400
C786        C  0.74894465  0.33616816  0.18681138    -0.12100
C787        C  0.75653098  0.34447103  0.21749941     0.01200
C788        C  0.74466020  0.33196025  0.24392228    -0.24300
H789        H  0.65602316  0.25151851  0.15083901     0.09200
H790        H  0.69098964  0.28494958  0.15423759     0.12700
H791        H  0.65639647  0.24171327  0.25204802     0.11500
H792        H  0.68640159  0.26959066  0.28481906     0.12700
H793        H  0.72085745  0.30489611  0.29052887     0.11700
H794        H  0.72412604  0.31075192  0.15815851     0.08800
H795        H  0.75820132  0.34538475  0.16615186     0.12000
H796        H  0.75093177  0.33801103  0.26778391     0.13900
C797        C  0.85265288  0.41848656  0.61986307    -0.01600
C798        C  0.83281844  0.40313662  0.60445684    -0.09600
C799        C  0.83056177  0.40323716  0.57132731    -0.18500
C800        C  0.84817050  0.41884308  0.55229861     0.03900
C801        C  0.86840048  0.43407935  0.56796100     0.18100
C802        C  0.87042848  0.43380034  0.60129549    -0.19900
C803        C  0.88651353  0.44963707  0.55030544    -0.21100
C804        C  0.88498047  0.45053632  0.51736499    -0.19700
C805        C  0.86521905  0.43605341  0.50123727     0.19500
C806        C  0.84647121  0.42000126  0.51839823     0.01600
C807        C  0.82682026  0.40606574  0.50086144    -0.14400
C808        C  0.82586438  0.40809889  0.46781532    -0.12100
C809        C  0.84443490  0.42391318  0.45101116     0.01200
C810        C  0.86409600  0.43773297  0.46798353    -0.24300
H811        H  0.81883426  0.39098075  0.61807363     0.09200
H812        H  0.81481544  0.39089740  0.56136381     0.12700
H813        H  0.88591387  0.44570625  0.61280170     0.11500
H814        H  0.90200127  0.46124378  0.56207473     0.12700
H815        H  0.89932313  0.46280967  0.50442471     0.11700
H816        H  0.81183472  0.39356604  0.51198712     0.08800
H817        H  0.81045951  0.39713416  0.45536142     0.12000
H818        H  0.87856761  0.45008935  0.45534215     0.13900
C819        C  0.85274507  0.42479009  0.11957495    -0.01600
C820        C  0.83309103  0.40900044  0.10426959    -0.09600
C821        C  0.83077792  0.40885948  0.07121560    -0.18500
C822        C  0.84814511  0.42464899  0.05210048     0.03900
C823        C  0.86787620  0.44096076  0.06772234     0.18100
C824        C  0.87003899  0.44082913  0.10106867    -0.19900
C825        C  0.88533432  0.45734545  0.04997630    -0.21100
C826        C  0.88363265  0.45792927  0.01698996    -0.19700
C827        C  0.86454420  0.44197832  0.00086455     0.19500
C828        C  0.84658246  0.42496805  0.01812725     0.01600
C829        C  0.82789655  0.40899673  0.00057807    -0.14400
C830        C  0.82687172  0.41024383  0.96746173    -0.12100
C831        C  0.84443154  0.42727244  0.95058903     0.01200
C832        C  0.86332436  0.44297202  0.96749891    -0.24300
H833        H  0.81933437  0.39651541  0.11788186     0.09200
H834        H  0.81511727  0.39622811  0.06142937     0.12700
H835        H  0.88525834  0.45326257  0.11259095     0.11500
H836        H  0.90038921  0.46987668  0.06170977     0.12700
H837        H  0.89740002  0.47092140  0.00397418     0.11700
H838        H  0.81380969  0.39526581  0.01166326     0.08800
H839        H  0.81223596  0.39767132  0.95498466     0.12000
H840        H  0.87708244  0.45616120  0.95470590     0.13900
C841        C  0.24291520  0.64974433  0.46759150    -0.01600
C842        C  0.26126693  0.65683848  0.48831839    -0.09600
C843        C  0.28079508  0.67710301  0.48386741    -0.18500
C844        C  0.28273337  0.69106638  0.45827770     0.03900
C845        C  0.26431193  0.68351236  0.43683547     0.18100
C846        C  0.24471986  0.66316567  0.44172185    -0.19900
C847        C  0.26546361  0.69634274  0.41060057    -0.21100
C848        C  0.28460505  0.71639018  0.40484313    -0.19700
C849        C  0.30297891  0.72429213  0.42542927     0.19500
C850        C  0.30229590  0.71207155  0.45284063     0.01600
C851        C  0.32125666  0.72146330  0.47331186    -0.14400
C852        C  0.34039411  0.74163199  0.46589760    -0.12100
C853        C  0.34118713  0.75281173  0.43785220     0.01200
C854        C  0.32222943  0.74424305  0.41824078    -0.24300
H855        H  0.26044784  0.64686121  0.50857720     0.09200
H856        H  0.29409008  0.68138226  0.50081612     0.12700
H857        H  0.23073633  0.65790811  0.42548012     0.11500
H858        H  0.25152260  0.69072550  0.39419738     0.12700
H859        H  0.28506413  0.72577285  0.38401224     0.11700
H860        H  0.32185017  0.71350719  0.49499485     0.08800
H861        H  0.35485520  0.74801946  0.48141879     0.12000
H862        H  0.32262596  0.75304845  0.39673683     0.13900
C863        C  0.05318227  0.50313893  0.62932882    -0.01600
C864        C  0.05436086  0.50091969  0.66242954    -0.09600
C865        C  0.03505743  0.48967420  0.68054969    -0.18500
C866        C  0.01378288  0.48008535  0.66603741     0.03900
C867        C  0.01273114  0.48083987  0.63219462     0.18100
C868        C  0.03228013  0.49250469  0.61429752    -0.19900
C869        C  0.99212934  0.47049353  0.61644815    -0.21100
C870        C  0.97248092  0.46028993  0.63362346    -0.19700
C871        C  0.97292751  0.46070322  0.66700017     0.19500
C872        C  0.99354955  0.47037297  0.68379120     0.01600
C873        C  0.99298040  0.47088918  0.71752244    -0.14400
C874        C  0.97286617  0.46309134  0.73369095    -0.12100
C875        C  0.95262978  0.45424766  0.71692279     0.01200
C876        C  0.95283452  0.45245104  0.68358242    -0.24300
H877        H  0.07030126  0.50869899  0.67467418     0.09200
H878        H  0.03731804  0.48901772  0.70588702     0.12700
H879        H  0.03118010  0.49370998  0.58865109     0.11500
H880        H  0.99119014  0.47064562  0.59065303     0.12700
H881        H  0.95680173  0.45278635  0.62068479     0.11700
H882        H  0.00786172  0.47805909  0.73202291     0.08800
H883        H  0.97328835  0.46473395  0.75941301     0.12000
H884        H  0.93735026  0.44559511  0.67021976     0.13900
C885        C  0.94702523  0.49307893  0.37495231    -0.01600
C886        C  0.96768199  0.50161433  0.36006785    -0.09600
C887        C  0.98748182  0.51340069  0.37749992    -0.18500
C888        C  0.98733620  0.51684515  0.41078262     0.03900
C889        C  0.96639130  0.50821044  0.42584843     0.18100
C890        C  0.94657955  0.49681785  0.40786266    -0.19900
C891        C  0.96533442  0.51033108  0.45895141    -0.21100
C892        C  0.98462774  0.51998799  0.47762647    -0.19700
C893        C  0.00553171  0.52831790  0.46360345     0.19500
C894        C  0.00716842  0.52766731  0.42983298     0.01600
C895        C  0.02860599  0.53752519  0.41659946    -0.14400
C896        C  0.04744851  0.54587463  0.43601918    -0.12100
C897        C  0.04581577  0.54468003  0.46942974     0.01200
C898        C  0.02476881  0.53662625  0.48310466    -0.24300
H899        H  0.96859597  0.49886488  0.33482545     0.09200
H900        H  0.00261761  0.51894057  0.36436066     0.12700
H901        H  0.93073904  0.49005578  0.41986401     0.11500
H902        H  0.94941227  0.50383845  0.47062143     0.12700
H903        H  0.98315981  0.52068050  0.50325839     0.11700
H904        H  0.03139976  0.53881469  0.39126238     0.08800
H905        H  0.06342191  0.55249767  0.42448892     0.12000
H906        H  0.02322149  0.53594184  0.50883527     0.13900
C907        C  0.34243916  0.75003074  0.93054479    -0.01600
C908        C  0.32576546  0.73734094  0.90802688    -0.09600
C909        C  0.30704084  0.71745256  0.91633577    -0.18500
C910        C  0.30428527  0.70930471  0.94770366     0.03900
C911        C  0.32121954  0.72217174  0.97058472     0.18100
C912        C  0.33998331  0.74241112  0.96192639    -0.19900
C913        C  0.31933384  0.71471440  0.00194504    -0.21100
C914        C  0.30088933  0.69493619  0.01120976    -0.19700
C915        C  0.28382939  0.68210982  0.98936787     0.19500
C916        C  0.28529028  0.68896213  0.95722260     0.01600
C917        C  0.26755842  0.67523015  0.93618076    -0.14400
C918        C  0.24892557  0.65588140  0.94690275    -0.12100
C919        C  0.24736065  0.64947243  0.97880069     0.01200
C920        C  0.26512296  0.66258410  0.99971835    -0.24300
H921        H  0.32712344  0.74285930  0.88359780     0.09200
H922        H  0.29507248  0.70885984  0.89756991     0.12700
H923        H  0.35284716  0.75200229  0.97944442     0.11500
H924        H  0.33216799  0.72429807  0.01948962     0.12700
H925        H  0.29987437  0.68971877  0.03575807     0.11700
H926        H  0.26742211  0.67907628  0.91136428     0.08800
H927        H  0.23555453  0.64608071  0.93020522     0.12000
H928        H  0.26427577  0.65784084  0.02448894     0.13900
C929        C  0.95005723  0.45417048  0.20995513    -0.01600
C930        C  0.94697997  0.45095711  0.17679226    -0.09600
C931        C  0.96496600  0.45779023  0.15640923    -0.18500
C932        C  0.98692775  0.46823118  0.16842895     0.03900
C933        C  0.98996760  0.47014098  0.20216634     0.18100
C934        C  0.97160947  0.46311619  0.22255615    -0.19900
C935        C  0.01139507  0.47979336  0.21528866    -0.21100
C936        C  0.02990581  0.48845112  0.19568593    -0.19700
C937        C  0.02747460  0.48793870  0.16246483     0.19500
C938        C  0.00597568  0.47750744  0.14823114     0.01600
C939        C  0.00457507  0.47774174  0.11449461    -0.14400
C940        C  0.02369842  0.48898512  0.09592906    -0.12100
C941        C  0.04480840  0.50010316  0.11026077     0.01200
C942        C  0.04650751  0.49874138  0.14350021    -0.24300
H943        H  0.93051605  0.44369744  0.16621372     0.09200
H944        H  0.96111189  0.45504543  0.13130082     0.12700
H945        H  0.97423595  0.46553942  0.24810419     0.11500
H946        H  0.01389151  0.48110392  0.24091309     0.12700
H947        H  0.04629586  0.49626912  0.20664230     0.11700
H948        H  0.98893271  0.47009800  0.10176304     0.08800
H949        H  0.02186259  0.48967410  0.07036151     0.12000
H950        H  0.06273506  0.50708181  0.15498977     0.13900
C951        C  0.15366165  0.57631115  0.87355007    -0.01600
C952        C  0.17353322  0.58069935  0.85885549    -0.09600
C953        C  0.17467649  0.57874906  0.82596811    -0.18500
C954        C  0.15588296  0.57238762  0.80621151     0.03900
C955        C  0.13552845  0.56731420  0.82110816     0.18100
C956        C  0.13458680  0.56933872  0.85446310    -0.19900
C957        C  0.11630773  0.56041463  0.80256487    -0.21100
C958        C  0.11692751  0.55873094  0.76954057    -0.19700
C959        C  0.13684226  0.56417043  0.75414209     0.19500
C960        C  0.15663198  0.57108522  0.77223780     0.01600
C961        C  0.17640131  0.57683536  0.75545493    -0.14400
C962        C  0.17654951  0.57605309  0.72219787    -0.12100
C963        C  0.15702603  0.56923152  0.70443704     0.01200
C964        C  0.13715525  0.56306157  0.72066004    -0.24300
H965        H  0.18849173  0.58576250  0.87285508     0.09200
H966        H  0.19059144  0.58237288  0.81681240     0.12700
H967        H  0.11903621  0.56564659  0.86548782     0.11500
H968        H  0.10069029  0.55638063  0.81366847     0.12700
H969        H  0.10176502  0.55342525  0.75589457     0.11700
H970        H  0.19214919  0.58233401  0.76723889     0.08800
H971        H  0.19207705  0.58072650  0.71032601     0.12000
H972        H  0.12193484  0.55781138  0.70716521     0.13900
C973        C  0.13919151  0.56108523  0.20483136    -0.01600
C974        C  0.11873182  0.55213137  0.22053338    -0.09600
C975        C  0.11776445  0.55297026  0.25371286    -0.18500
C976        C  0.13738268  0.56311792  0.27254862     0.03900
C977        C  0.15809548  0.57192609  0.25658777     0.18100
C978        C  0.15880684  0.57060219  0.22314476    -0.19900
C979        C  0.17802853  0.58241997  0.27404500    -0.21100
C980        C  0.17791117  0.58481599  0.30696510    -0.19700
C981        C  0.15784674  0.57650334  0.32339312     0.19500
C982        C  0.13725174  0.56520656  0.30651643     0.01600
C983        C  0.11747755  0.55662699  0.32441338    -0.14400
C984        C  0.11817171  0.55934208  0.35749531    -0.12100
C985        C  0.13851193  0.57080718  0.37401680     0.01200
C986        C  0.15829899  0.57938425  0.35668398    -0.24300
H987        H  0.10326471  0.54443356  0.20707753     0.09200
H988        H  0.10139645  0.54584763  0.26381006     0.12700
H989        H  0.17472558  0.57757272  0.21131018     0.11500
H990        H  0.19387275  0.58913106  0.26208702     0.12700
H991        H  0.19366694  0.59328831  0.31967823     0.11700
H992        H  0.10118117  0.54760802  0.31362087     0.08800
H993        H  0.10259496  0.55243589  0.37019947     0.12000
H994        H  0.17414058  0.58804659  0.36917689     0.13900
C995        C  0.94600512  0.49652462  0.87064015    -0.01600
C996        C  0.94634187  0.50085223  0.90337621    -0.09600
C997        C  0.96644960  0.51236951  0.92017524    -0.18500
C998        C  0.98702076  0.51994110  0.90468758     0.03900
C999        C  0.98660189  0.51675971  0.87111607     0.18100
C1000       C  0.96626521  0.50516955  0.85452865    -0.19900
C1001       C  0.00646651  0.52443689  0.85440522    -0.21100
C1002       C  0.02677556  0.53447272  0.87045729    -0.19700
C1003       C  0.02771331  0.53683023  0.90367157     0.19500
C1004       C  0.00790208  0.52984361  0.92132019     0.01600
C1005       C  0.00982459  0.53215566  0.95492644    -0.14400
C1006       C  0.03035562  0.53997097  0.97032412    -0.12100
C1007       C  0.04970341  0.54629027  0.95281303     0.01200
C1008       C  0.04831735  0.54530007  0.91942689    -0.24300
H1009       H  0.93095797  0.49452956  0.91643551     0.09200
H1010       H  0.96530583  0.51466066  0.94536259     0.12700
H1011       H  0.96624441  0.50219774  0.82912957     0.11500
H1012       H  0.00627257  0.52225172  0.82878310     0.12700
H1013       H  0.04182267  0.53982945  0.85686835     0.11700
H1014       H  0.99568219  0.52735450  0.97006559     0.08800
H1015       H  0.03103181  0.54071525  0.99613756     0.12000
H1016       H  0.06316862  0.54997169  0.90565539     0.13900
C1017       C  0.40726305  0.75678734  0.79860798    -0.01600
C1018       C  0.41817890  0.75591023  0.77118413    -0.09600
C1019       C  0.41845868  0.73664315  0.76301596    -0.18500
C1020       C  0.40795246  0.71751419  0.78233017     0.03900
C1021       C  0.39634868  0.71824184  0.80962642     0.18100
C1022       C  0.39595618  0.73767325  0.81733192    -0.19900
C1023       C  0.38564754  0.69975510  0.82950936    -0.21100
C1024       C  0.38667137  0.68065813  0.82331054    -0.19700
C1025       C  0.39830891  0.67951017  0.79695952     0.19500
C1026       C  0.40886223  0.69786453  0.77584958     0.01600
C1027       C  0.42001240  0.69582127  0.74921773    -0.14400
C1028       C  0.42053059  0.67644953  0.74366744    -0.12100
C1029       C  0.41020776  0.65844841  0.76440797     0.01200
C1030       C  0.39928027  0.66005070  0.79129212    -0.24300
H1031       H  0.42690749  0.77032870  0.75615036     0.09200
H1032       H  0.42742750  0.73748714  0.74173200     0.12700
H1033       H  0.38737840  0.73808303  0.83860161     0.11500
H1034       H  0.37666534  0.70017670  0.85028318     0.12700
H1035       H  0.37838880  0.66672892  0.83933352     0.11700
H1036       H  0.42831721  0.70874800  0.73192998     0.08800
H1037       H  0.42894386  0.67541957  0.72260167     0.12000
H1038       H  0.39090384  0.64595253  0.80702744     0.13900
C1039       C  0.34951177  0.59121972  0.63631114    -0.01600
C1040       C  0.33591087  0.59117040  0.66085117    -0.09600
C1041       C  0.31661802  0.59189901  0.65406608    -0.18500
C1042       C  0.31049265  0.59310340  0.62227832     0.03900
C1043       C  0.32484308  0.59392562  0.59752051     0.18100
C1044       C  0.34390124  0.59255820  0.60467976    -0.19900
C1045       C  0.32012446  0.59616072  0.56576153    -0.21100
C1046       C  0.30117587  0.59709077  0.55790433    -0.19700
C1047       C  0.28625956  0.59535713  0.58155373     0.19500
C1048       C  0.29064204  0.59340446  0.61411180     0.01600
C1049       C  0.27469453  0.59132956  0.63685933    -0.14400
C1050       C  0.25499622  0.59067990  0.62746493    -0.12100
C1051       C  0.25068497  0.59231347  0.59526028     0.01200
C1052       C  0.26667741  0.59505623  0.57258844    -0.24300
H1053       H  0.34010493  0.59029382  0.68553041     0.09200
H1054       H  0.30698566  0.59168883  0.67422044     0.12700
H1055       H  0.35465848  0.59303680  0.58569384     0.11500
H1056       H  0.33112404  0.59711557  0.54684322     0.12700
H1057       H  0.29792191  0.59870893  0.53303564     0.11700
H1058       H  0.27671026  0.58969057  0.66200422     0.08800
H1059       H  0.24302417  0.58867490  0.64545690     0.12000
H1060       H  0.26370263  0.59644915  0.54751831     0.13900
C1061       C  0.40564727  0.75475112  0.30788485    -0.01600
C1062       C  0.39257572  0.73578768  0.32615903    -0.09600
C1063       C  0.39336230  0.71634351  0.32135196    -0.18500
C1064       C  0.40735499  0.71525411  0.29798204     0.03900
C1065       C  0.42038821  0.73450412  0.27937304     0.18100
C1066       C  0.41942432  0.75387130  0.28446018    -0.19900
C1067       C  0.43434417  0.73439245  0.25563214    -0.21100
C1068       C  0.43516908  0.71532830  0.24916447    -0.19700
C1069       C  0.42227669  0.69602278  0.26657157     0.19500
C1070       C  0.40860158  0.69572384  0.29183660     0.01600
C1071       C  0.39660097  0.67578607  0.30929993    -0.14400
C1072       C  0.39722838  0.65666065  0.30064191    -0.12100
C1073       C  0.40967380  0.65699217  0.27440331     0.01200
C1074       C  0.42255568  0.67678992  0.25810029    -0.24300
H1075       H  0.38183189  0.73600950  0.34458417     0.09200
H1076       H  0.38279824  0.70245141  0.33619920     0.12700
H1077       H  0.42973196  0.76843965  0.27032583     0.11500
H1078       H  0.44441897  0.74905759  0.24156510     0.12700
H1079       H  0.44578009  0.71561084  0.23011818     0.11700
H1080       H  0.38635119  0.67437991  0.32934159     0.08800
H1081       H  0.38725673  0.64140563  0.31353982     0.12000
H1082       H  0.43245771  0.67702524  0.23802773     0.13900
C1083       C  0.34755689  0.59445076  0.13785563    -0.01600
C1084       C  0.33973991  0.59157796  0.10636946    -0.09600
C1085       C  0.31940589  0.59025986  0.09924008    -0.18500
C1086       C  0.30590837  0.59123530  0.12367069     0.03900
C1087       C  0.31399769  0.59419121  0.15555369     0.18100
C1088       C  0.33476651  0.59618698  0.16222112    -0.19900
C1089       C  0.30108240  0.59458184  0.18076298    -0.21100
C1090       C  0.28005378  0.59171482  0.17512113    -0.19700
C1091       C  0.27157416  0.58887864  0.14405332     0.19500
C1092       C  0.28454681  0.58898565  0.11778949     0.01600
C1093       C  0.27557979  0.58693325  0.08682091    -0.14400
C1094       C  0.25478913  0.58502534  0.08220007    -0.12100
C1095       C  0.24196404  0.58465695  0.10812175     0.01200
C1096       C  0.25030641  0.58627528  0.13905997    -0.24300
H1097       H  0.34935114  0.59022925  0.08714888     0.09200
H1098       H  0.31447799  0.58791660  0.07448584     0.12700
H1099       H  0.34056645  0.59816085  0.18672870     0.11500
H1100       H  0.30715482  0.59678300  0.20512755     0.12700
H1101       H  0.27039577  0.59184448  0.19522646     0.11700
H1102       H  0.28436945  0.58715531  0.06563031     0.08800
H1103       H  0.24865119  0.58381512  0.05802796     0.12000
H1104       H  0.24059131  0.58631810  0.15916410     0.13900
C1105       C  0.42623547  0.57575375  0.04131454    -0.01600
C1106       C  0.41091650  0.57987276  0.02534797    -0.09600
C1107       C  0.41174962  0.58250186  0.99232441    -0.18500
C1108       C  0.42806550  0.58111067  0.97404703     0.03900
C1109       C  0.44339150  0.57665617  0.99032437     0.18100
C1110       C  0.44240889  0.57413331  0.02354563    -0.19900
C1111       C  0.45956194  0.57461358  0.97335967    -0.21100
C1112       C  0.46071244  0.57664974  0.94038811    -0.19700
C1113       C  0.44593887  0.58111713  0.92361988     0.19500
C1114       C  0.42960615  0.58374494  0.94023309     0.01600
C1115       C  0.41559725  0.58897434  0.92225492    -0.14400
C1116       C  0.41740595  0.59100335  0.88920324    -0.12100
C1117       C  0.43312961  0.58783942  0.87280001     0.01200
C1118       C  0.44742892  0.58299046  0.89026109    -0.24300
H1119       H  0.39812644  0.58102649  0.03840442     0.09200
H1120       H  0.39925561  0.58540991  0.98184684     0.12700
H1121       H  0.45431921  0.57085633  0.03556149     0.11500
H1122       H  0.47129117  0.57121641  0.98565712     0.12700
H1123       H  0.47328930  0.57476398  0.92791738     0.11700
H1124       H  0.40313165  0.59172401  0.93297689     0.08800
H1125       H  0.40623199  0.59492344  0.87641595     0.12000
H1126       H  0.45983369  0.58074567  0.87791043     0.13900
C1127       C  0.43108027  0.58202422  0.37266876    -0.01600
C1128       C  0.44513353  0.57570921  0.38758646    -0.09600
C1129       C  0.44487056  0.57311122  0.42058046    -0.18500
C1130       C  0.43044184  0.57677092  0.44002783     0.03900
C1131       C  0.41588566  0.58276295  0.42480303     0.18100
C1132       C  0.41638394  0.58540210  0.39152322    -0.19900
C1133       C  0.40097355  0.58617104  0.44289240    -0.21100
C1134       C  0.40036496  0.58400252  0.47588550    -0.19700
C1135       C  0.41478068  0.57854966  0.49166671     0.19500
C1136       C  0.43001420  0.57481913  0.47398059     0.01600
C1137       C  0.44434532  0.56956601  0.49111262    -0.14400
C1138       C  0.44366622  0.56820636  0.52429259    -0.12100
C1139       C  0.42868220  0.57192345  0.54169823     0.01200
C1140       C  0.41418297  0.57699239  0.52511531    -0.24300
H1141       H  0.45655588  0.57283201  0.37371074     0.09200
H1142       H  0.45619455  0.56821917  0.43005605     0.12700
H1143       H  0.40527926  0.59012691  0.38031949     0.11500
H1144       H  0.38973729  0.59062024  0.43144618     0.12700
H1145       H  0.38866812  0.58681847  0.48918611     0.11700
H1146       H  0.45643179  0.56657795  0.47966571     0.08800
H1147       H  0.45502795  0.56420754  0.53635689     0.12000
H1148       H  0.40248583  0.57991404  0.53824113     0.13900
C1149       C  0.58756240  0.34090630  0.01962503    -0.01600
C1150       C  0.58093594  0.32290755  0.99871558    -0.09600
C1151       C  0.58123122  0.30393325  0.00815414    -0.18500
C1152       C  0.58854154  0.30236781  0.03898717     0.03900
C1153       C  0.59513568  0.32062568  0.06031379     0.18100
C1154       C  0.59431463  0.33955045  0.05063804    -0.19900
C1155       C  0.60283621  0.32000962  0.09096896    -0.21100
C1156       C  0.60416469  0.30169913  0.10091774    -0.19700
C1157       C  0.59769891  0.28347932  0.08053418     0.19500
C1158       C  0.58972934  0.28345253  0.04929372     0.01600
C1159       C  0.58333635  0.26449232  0.02980646    -0.14400
C1160       C  0.58467850  0.24631668  0.04103184    -0.12100
C1161       C  0.59238443  0.24639140  0.07194256     0.01200
C1162       C  0.59902192  0.26517529  0.09141142    -0.24300
H1163       H  0.57548464  0.32350945  0.97466206     0.09200
H1164       H  0.57590884  0.29093991  0.99055845     0.12700
H1165       H  0.59962718  0.35349190  0.06684169     0.11500
H1166       H  0.60797979  0.33383668  0.10732179     0.12700
H1167       H  0.61025438  0.30176924  0.12480052     0.11700
H1168       H  0.57703628  0.26306092  0.00588163     0.08800
H1169       H  0.57929959  0.23200393  0.02559914     0.12000
H1170       H  0.60506733  0.26553182  0.11542761     0.13900
C1171       C  0.65022009  0.40564890  0.88727106    -0.01600
C1172       C  0.65633560  0.40822169  0.85522386    -0.09600
C1173       C  0.67531215  0.40789571  0.84568637    -0.18500
C1174       C  0.68915024  0.40530362  0.86807725     0.03900
C1175       C  0.68315474  0.40313714  0.90073340     0.18100
C1176       C  0.66361076  0.40294748  0.90995739    -0.19900
C1177       C  0.69687673  0.40150021  0.92391230    -0.21100
C1178       C  0.71649298  0.40202617  0.91533576    -0.19700
C1179       C  0.72267121  0.40374896  0.88329213     0.19500
C1180       C  0.70884457  0.40509688  0.85923454     0.01600
C1181       C  0.71522676  0.40603283  0.82722580    -0.14400
C1182       C  0.73455647  0.40601438  0.81934668    -0.12100
C1183       C  0.74851872  0.40510975  0.84290005     0.01200
C1184       C  0.74248737  0.40401412  0.87500290    -0.24300
H1185       H  0.64631828  0.41045308  0.83734529     0.09200
H1186       H  0.67886148  0.41015798  0.82050031     0.12700
H1187       H  0.65915823  0.40135380  0.93495565     0.11500
H1188       H  0.69250617  0.40000549  0.94890769     0.12700
H1189       H  0.72681962  0.40091328  0.93388063     0.11700
H1190       H  0.70550335  0.40655421  0.80739808     0.08800
H1191       H  0.73861148  0.40687118  0.79430900     0.12000
H1192       H  0.75302415  0.40311869  0.89344024     0.13900
C1193       C  0.54642045  0.49854664  0.88411403    -0.01600
C1194       C  0.54202600  0.51371489  0.89975420    -0.09600
C1195       C  0.53528284  0.52656684  0.88259943    -0.18500
C1196       C  0.53235148  0.52439306  0.84906396     0.03900
C1197       C  0.53716837  0.50923436  0.83329006     0.18100
C1198       C  0.54447016  0.49687849  0.85071288    -0.19900
C1199       C  0.53382220  0.50578690  0.80033257    -0.21100
C1200       C  0.52485591  0.51637117  0.78281108    -0.19700
C1201       C  0.51947600  0.53104932  0.79768185     0.19500
C1202       C  0.52386810  0.53589543  0.83078878     0.01600
C1203       C  0.51899069  0.55158700  0.84423337    -0.14400
C1204       C  0.50856561  0.56067298  0.82619742    -0.12100
C1205       C  0.50272106  0.55455119  0.79416586     0.01200
C1206       C  0.50899247  0.54031149  0.77981495    -0.24300
H1207       H  0.54328409  0.51530779  0.92548506     0.09200
H1208       H  0.53174447  0.53747957  0.89640288     0.12700
H1209       H  0.54765512  0.48512919  0.83819007     0.11500
H1210       H  0.53750683  0.49427155  0.78816539     0.12700
H1211       H  0.52177501  0.51277167  0.75752563     0.11700
H1212       H  0.52264658  0.55686614  0.86878413     0.08800
H1213       H  0.50426507  0.57188729  0.83785903     0.12000
H1214       H  0.50490013  0.53566414  0.75494142     0.13900
C1215       C  0.50328658  0.45379111  0.04021255    -0.01600
C1216       C  0.49503159  0.44593823  0.07075792    -0.09600
C1217       C  0.48399107  0.45463348  0.08810555    -0.18500
C1218       C  0.48095017  0.47174539  0.07554754     0.03900
C1219       C  0.48836171  0.47889364  0.04394827     0.18100
C1220       C  0.49926278  0.46985336  0.02665123    -0.19900
C1221       C  0.48560553  0.49562952  0.03017273    -0.21100
C1222       C  0.47644952  0.50607349  0.04751830    -0.19700
C1223       C  0.46988825  0.50011079  0.07913175     0.19500
C1224       C  0.47162909  0.48260091  0.09351373     0.01600
C1225       C  0.46479833  0.47740369  0.12562348    -0.14400
C1226       C  0.45785264  0.48994814  0.14316804    -0.12100
C1227       C  0.45701123  0.50773493  0.12918106     0.01200
C1228       C  0.46239263  0.51219992  0.09680007    -0.24300
H1229       H  0.49771741  0.43345040  0.08184645     0.09200
H1230       H  0.47852685  0.44798337  0.11158979     0.12700
H1231       H  0.50541191  0.47603167  0.00299757     0.11500
H1232       H  0.49105389  0.50105180  0.00603333     0.12700
H1233       H  0.47503367  0.51933066  0.03637391     0.11700
H1234       H  0.46523227  0.46415513  0.13814614     0.08800
H1235       H  0.45352487  0.48595401  0.16798386     0.12000
H1236       H  0.46180532  0.52589549  0.08557566     0.13900
C1237       C  0.59626253  0.34743515  0.51941761    -0.01600
C1238       C  0.59847437  0.33337439  0.49748310    -0.09600
C1239       C  0.59660367  0.31336792  0.50691847    -0.18500
C1240       C  0.59257684  0.30656860  0.53897293     0.03900
C1241       C  0.59115829  0.32115588  0.56150404     0.18100
C1242       C  0.59275575  0.34123599  0.55156599    -0.19900
C1243       C  0.58814376  0.31557869  0.59381507    -0.21100
C1244       C  0.58665375  0.29595456  0.60424838    -0.19700
C1245       C  0.58762144  0.28113301  0.58256267     0.19500
C1246       C  0.59019089  0.28597169  0.54952078     0.01600
C1247       C  0.59011104  0.26989850  0.52857531    -0.14400
C1248       C  0.58834119  0.25024204  0.54017170    -0.12100
C1249       C  0.58671242  0.24599109  0.57293123     0.01200
C1250       C  0.58609641  0.26148736  0.59386123    -0.24300
H1251       H  0.60131509  0.33761222  0.47246920     0.09200
H1252       H  0.59853822  0.30365858  0.48852081     0.12700
H1253       H  0.59116515  0.35195350  0.56883726     0.11500
H1254       H  0.58713348  0.32656876  0.61120217     0.12700
H1255       H  0.58459392  0.29227714  0.62950109     0.11700
H1256       H  0.59128982  0.27197247  0.50308533     0.08800
H1257       H  0.58863482  0.23852033  0.52345075     0.12000
H1258       H  0.58445568  0.25830756  0.61927170     0.13900
C1259       C  0.65372972  0.41225158  0.38460077    -0.01600
C1260       C  0.66137877  0.41692314  0.35325874    -0.09600
C1261       C  0.68044026  0.41645077  0.34425680    -0.18500
C1262       C  0.69269790  0.41148642  0.36657588     0.03900
C1263       C  0.68541777  0.40769886  0.39866140     0.18100
C1264       C  0.66593414  0.40777541  0.40724227    -0.19900
C1265       C  0.69766794  0.40393713  0.42198314    -0.21100
C1266       C  0.71700930  0.40373217  0.41406510    -0.19700
C1267       C  0.72425490  0.40665680  0.38246479     0.19500
C1268       C  0.71195511  0.41026636  0.35824141     0.01600
C1269       C  0.71917606  0.41205718  0.32653601    -0.14400
C1270       C  0.73783638  0.41057126  0.31919100    -0.12100
C1271       C  0.75026914  0.40739324  0.34298411     0.01200
C1272       C  0.74350279  0.40564891  0.37476425    -0.24300
H1273       H  0.65243103  0.42071330  0.33545556     0.09200
H1274       H  0.68526476  0.42033466  0.31972149     0.12700
H1275       H  0.66042354  0.40463207  0.43177891     0.11500
H1276       H  0.69231080  0.40124567  0.44658572     0.12700
H1277       H  0.72615547  0.40090088  0.43270530     0.11700
H1278       H  0.71055291  0.41419148  0.30666118     0.08800
H1279       H  0.74261358  0.41207598  0.29438142     0.12000
H1280       H  0.75284883  0.40299647  0.39330063     0.13900
C1281       C  0.57760085  0.43145345  0.79213773    -0.01600
C1282       C  0.59164067  0.42513618  0.77733846    -0.09600
C1283       C  0.59220737  0.42373308  0.74416704    -0.18500
C1284       C  0.57862992  0.42859787  0.72445117     0.03900
C1285       C  0.56436962  0.43494173  0.73953816     0.18100
C1286       C  0.56405303  0.43639486  0.77295344    -0.19900
C1287       C  0.55033356  0.43962000  0.72121122    -0.21100
C1288       C  0.54985311  0.43778860  0.68816664    -0.19700
C1289       C  0.56357090  0.43145862  0.67256095     0.19500
C1290       C  0.57841063  0.42708119  0.69040426     0.01600
C1291       C  0.59225139  0.42124747  0.67334663    -0.14400
C1292       C  0.59085150  0.41911894  0.64017144    -0.12100
C1293       C  0.57573586  0.42280343  0.62272350     0.01200
C1294       C  0.56236058  0.42928679  0.63915723    -0.24300
H1295       H  0.60227845  0.42117312  0.79145887     0.09200
H1296       H  0.60331864  0.41859319  0.73474545     0.12700
H1297       H  0.55311330  0.44131710  0.78402126     0.11500
H1298       H  0.53945177  0.44450461  0.73254416     0.12700
H1299       H  0.53858884  0.44126865  0.67471643     0.11700
H1300       H  0.60430533  0.41814415  0.68491216     0.08800
H1301       H  0.60163213  0.41440490  0.62815871     0.12000
H1302       H  0.55072769  0.43239607  0.62598831     0.13900
C1303       C  0.57159770  0.42696500  0.29188183    -0.01600
C1304       C  0.58156866  0.41597244  0.27758242    -0.09600
C1305       C  0.58100694  0.41324023  0.24456843    -0.18500
C1306       C  0.57055827  0.42166568  0.22452651     0.03900
C1307       C  0.56073826  0.43310782  0.23911053     0.18100
C1308       C  0.56114492  0.43545011  0.27245498    -0.19900
C1309       C  0.55066862  0.44225049  0.22032550    -0.21100
C1310       C  0.55002275  0.44019058  0.18729023    -0.19700
C1311       C  0.55925150  0.42876227  0.17220479     0.19500
C1312       C  0.56960154  0.41926668  0.19059270     0.01600
C1313       C  0.57846746  0.40772263  0.17418151    -0.14400
C1314       C  0.57730853  0.40590004  0.14100956    -0.12100
C1315       C  0.56724984  0.41540741  0.12290306     0.01200
C1316       C  0.55817312  0.42676911  0.13876707    -0.24300
H1317       H  0.58976043  0.40926425  0.29203027     0.09200
H1318       H  0.58905221  0.40458366  0.23553515     0.12700
H1319       H  0.55359477  0.44421391  0.28326125     0.11500
H1320       H  0.54327405  0.45111120  0.23126149     0.12700
H1321       H  0.54214541  0.44750886  0.17343892     0.11700
H1322       H  0.58635242  0.39981925  0.18622625     0.08800
H1323       H  0.58433884  0.39689911  0.12950293     0.12000
H1324       H  0.55033198  0.43420503  0.12508252     0.13900
C1325       C  0.49967775  0.55138631  0.28829829    -0.01600
C1326       C  0.50807419  0.55948026  0.31896382    -0.09600
C1327       C  0.51825922  0.55019653  0.33711796    -0.18500
C1328       C  0.52020071  0.53224263  0.32524771     0.03900
C1329       C  0.51351078  0.52546527  0.29310202     0.18100
C1330       C  0.50346847  0.53508388  0.27499516    -0.19900
C1331       C  0.51589216  0.50837840  0.27968234    -0.21100
C1332       C  0.52379329  0.49713659  0.29794225    -0.19700
C1333       C  0.52917698  0.50246141  0.33021958     0.19500
C1334       C  0.52772396  0.52023658  0.34434872     0.01600
C1335       C  0.53280645  0.52443657  0.37731427    -0.14400
C1336       C  0.53839925  0.51109772  0.39558557    -0.12100
C1337       C  0.53953039  0.49342228  0.38159092     0.01200
C1338       C  0.53529291  0.48955722  0.34867609    -0.24300
H1339       H  0.50588624  0.57241681  0.32965825     0.09200
H1340       H  0.52387146  0.55701112  0.36067700     0.12700
H1341       H  0.49746054  0.52892141  0.25109689     0.11500
H1342       H  0.51110162  0.50330485  0.25509099     0.12700
H1343       H  0.52500969  0.48368069  0.28698756     0.11700
H1344       H  0.53198897  0.53751089  0.38987365     0.08800
H1345       H  0.54168128  0.51454815  0.42084583     0.12000
H1346       H  0.53598616  0.47589178  0.33742044     0.13900
C1347       C  0.50357364  0.45121059  0.54455116    -0.01600
C1348       C  0.49236910  0.46042742  0.52869031    -0.09600
C1349       C  0.48213367  0.47005658  0.54576107    -0.18500
C1350       C  0.48322373  0.47123865  0.57949488     0.03900
C1351       C  0.49385834  0.46107731  0.59550451     0.18100
C1352       C  0.50349654  0.45085758  0.57802738    -0.19900
C1353       C  0.49574822  0.46207399  0.62881116    -0.21100
C1354       C  0.48803660  0.47369113  0.64658145    -0.19700
C1355       C  0.47800477  0.48438819  0.63153175     0.19500
C1356       C  0.47499718  0.48289449  0.59782385     0.01600
C1357       C  0.46448478  0.49371125  0.58386004    -0.14400
C1358       C  0.45823311  0.50630960  0.60231169    -0.12100
C1359       C  0.46203480  0.50853551  0.63536775     0.01200
C1360       C  0.47149608  0.49707841  0.64992215    -0.24300
H1361       H  0.49205239  0.46077861  0.50287744     0.09200
H1362       H  0.47421470  0.47712060  0.53175192     0.12700
H1363       H  0.51221792  0.44386806  0.59060828     0.11500
H1364       H  0.50380774  0.45432263  0.64116444     0.12700
H1365       H  0.49027398  0.47462265  0.67225095     0.11700
H1366       H  0.46112795  0.49306708  0.55865858     0.08800
H1367       H  0.45072284  0.51473102  0.59035678     0.12000
H1368       H  0.47449499  0.49861346  0.67545265     0.13900
loop_ 
_geom_bond_atom_site_label_1 
_geom_bond_atom_site_label_2 
_geom_bond_distance 
_geom_bond_site_symmetry_2 
_ccdc_geom_bond_type 
O1           Mg3   2.127       .  S
O1           Mg9   2.128       .  S
O1           C36   1.239       .  S
C2           O15   1.236       .  S
C2           O39   1.268       .  A
C2           H41   1.081       .  S
Mg3          O32   2.147       .  S
Mg3          O47   2.364       .  S
Mg3          O43   2.257       .  S
Mg3          O14   2.323       .  S
O4          Mg46   2.152       .  S
O4          Mg29   2.131       .  S
O4           C25   1.235       .  S
O5           C36   1.272       .  A
O5          Mg29   2.299       .  S
C6            O8   1.271       .  A
C6           O20   1.278       .  A
C6         C1347   1.482       .  S
O7           C35   1.273       .  A
O7           Mg9   2.308       .  S
O8          Mg40   2.253       .  S
Mg9          O15   2.110       .  S
Mg9          O23   2.221       .  S
Mg9          O11   2.285       .  S
C10          O48   1.279       .  A
C10          O16   1.274       .  A
C10        C1337   1.489       .  S
O11          C18   1.272       .  A
H12          C25   1.081       .  S
C13          O27   1.237       .  S
C13          O28   1.271       .  A
C13          H38   1.081       .  S
O14          C37   1.275       .  A
O15         Mg29   2.138       .  S
O16         Mg46   2.281       .  S
C17          O30   1.274       .  A
C17          O22   1.276       .  A
C17        C1303   1.480       .  S
C18          O45   1.274       .  A
C18        C1259   1.480       .  S
Mg19         O26   2.178       .  S
Mg19         O27   2.160       .  S
Mg19         O20   2.323       .  S
Mg19         O21   2.287       .  S
Mg19         O48   2.315       .  S
O21          C25   1.268       .  A
O22         Mg29   2.299       .  S
O23          C42   1.268       .  A
O24          C44   1.276       .  A
O24         Mg40   2.318       .  S
O26         Mg40   2.154       .  S
O26          C37   1.238       .  S
O27         Mg46   2.148       .  S
O28         Mg40   2.303       .  S
Mg29         O45   2.280       .  S
O30         Mg46   2.273       .  S
H31          C36   1.081       .  S
O32         Mg40   2.147       .  S
O32          C35   1.238       .  S
H33          C35   1.081       .  S
H34          C37   1.081       .  S
O39         Mg46   2.283       .  S
C42          O47   1.281       .  A
C42        C1237   1.490       .  S
O43          C44   1.272       .  A
C44        C1293   1.485       .  S
O49         Mg51   2.132   1_556  S
O49         Mg57   2.134       .  S
O49          C84   1.238       .  S
C50          O63   1.235       .  S
C50          O87   1.268       .  A
C50          H89   1.081       .  S
Mg51         O80   2.152       .  S
Mg51         O95   2.345       .  S
Mg51         O91   2.256       .  S
Mg51         O62   2.316       .  S
O52         Mg94   2.152       .  S
O52         Mg77   2.126       .  S
O52          C73   1.235       .  S
O53          C84   1.272       .  A
O53         Mg77   2.302       .  S
C54          O56   1.273       .  A
C54          O68   1.277   1_554  A
C54        C1215   1.489       .  S
O55          C83   1.273       .  A
O55         Mg57   2.309       .  S
O56         Mg88   2.268       .  S
Mg57         O63   2.113       .  S
Mg57         O71   2.218       .  S
Mg57         O59   2.306       .  S
C58          O96   1.277       .  A
C58          O64   1.275       .  A
C58        C1193   1.487       .  S
O59          C66   1.274       .  A
H60          C73   1.081       .  S
C61          O75   1.236       .  S
C61          O76   1.271       .  A
C61          H86   1.081       .  S
O62          C85   1.273       .  A
O63         Mg77   2.133       .  S
O64         Mg94   2.286       .  S
C65          O78   1.275       .  A
C65          O70   1.276       .  A
C65        C1281   1.486       .  S
C66          O93   1.272       .  A
C66        C1171   1.476       .  S
Mg67         O74   2.169   1_556  S
Mg67         O75   2.161       .  S
Mg67         O68   2.317       .  S
Mg67         O69   2.289       .  S
Mg67         O96   2.294       .  S
O69          C73   1.268       .  A
O70         Mg77   2.302       .  S
O71          C90   1.267   1_556  A
O72          C92   1.277       .  A
O72         Mg88   2.320       .  S
O74         Mg88   2.156       .  S
O74          C85   1.237       .  S
O75         Mg94   2.151       .  S
O76         Mg88   2.301   1_556  S
Mg77         O93   2.261       .  S
O78         Mg94   2.277       .  S
H79          C84   1.081       .  S
O80         Mg88   2.156       .  S
O80          C83   1.239   1_554  S
H81          C83   1.081       .  S
H82          C85   1.081       .  S
O87         Mg94   2.284       .  S
C90          O95   1.279       .  A
C90        C1149   1.478       .  S
O91          C92   1.272       .  A
C92        C1315   1.484       .  S
O97         Mg99   2.139       .  S
O97        Mg105   2.138       .  S
O97         C132   1.238       .  S
C98         O111   1.236       .  S
C98         O135   1.268       .  A
C98         H137   1.081       .  S
Mg99        O128   2.157       .  S
Mg99        O143   2.323       .  S
Mg99        O139   2.263       .  S
Mg99        O110   2.307       .  S
O100       Mg142   2.155       .  S
O100       Mg125   2.135       .  S
O100        C121   1.236       .  S
O101        C132   1.272       .  A
O101       Mg125   2.304       .  S
C102        O104   1.273       .  A
C102        O116   1.278       .  A
C102       C1325   1.487       .  S
O103        C131   1.273       .  A
O103       Mg105   2.304       .  S
O104       Mg136   2.262       .  S
Mg105       O111   2.110       .  S
Mg105       O119   2.218       .  S
Mg105       O107   2.300       .  S
C106        O144   1.276       .  A
C106        O112   1.274       .  A
C106       C1227   1.486       .  S
O107        C114   1.275       .  A
H108        C121   1.081       .  S
C109        O123   1.236       .  S
C109        O124   1.270       .  A
C109        H134   1.081       .  S
O110        C133   1.272       .  A
O111       Mg125   2.136       .  S
O112       Mg142   2.285       .  S
C113        O126   1.273       .  A
C113        O118   1.277       .  A
C113       C1105   1.481       .  S
C114        O141   1.274       .  A
C114       C1083   1.481       .  S
Mg115       O122   2.159       .  S
Mg115       O123   2.158       .  S
Mg115       O116   2.319       .  S
Mg115       O117   2.292       .  S
Mg115       O144   2.296       .  S
O117        C121   1.269       .  A
O118       Mg125   2.303       .  S
O119        C138   1.268       .  A
O120        C140   1.277       .  A
O120       Mg136   2.313       .  S
O122       Mg136   2.158       .  S
O122        C133   1.237       .  S
O123       Mg142   2.141       .  S
O124       Mg136   2.297       .  S
Mg125       O141   2.283       .  S
O126       Mg142   2.255       .  S
H127        C132   1.081       .  S
O128       Mg136   2.143       .  S
O128        C131   1.239       .  S
H129        C131   1.081       .  S
H130        C133   1.081       .  S
O135       Mg142   2.284       .  S
C138        O143   1.275       .  A
C138       C1073   1.466       .  S
O139        C140   1.272       .  A
C140       C1127   1.485       .  S
O145       Mg147   2.132       .  S
O145       Mg153   2.128       .  S
O145        C180   1.238       .  S
C146        O159   1.235       .  S
C146        O183   1.266       .  A
C146        H185   1.081       .  S
Mg147       O176   2.152       .  S
Mg147       O191   2.350       .  S
Mg147       O187   2.245       .  S
Mg147       O158   2.316       .  S
O148       Mg190   2.152       .  S
O148       Mg173   2.127       .  S
O148        C169   1.235       .  S
O149        C180   1.272       .  A
O149       Mg173   2.304       .  S
C150        O152   1.273       .  A
C150        O164   1.277       .  A
C150       C1205   1.486       .  S
O151        C179   1.273       .  A
O151       Mg153   2.308       .  S
O152       Mg184   2.266       .  S
Mg153       O159   2.095       .  S
Mg153       O167   2.194       .  S
Mg153       O155   2.269       .  S
C154        O192   1.276       .  A
C154        O160   1.273       .  A
C154       C1359   1.484       .  S
O155        C162   1.270       .  A
H156        C169   1.081       .  S
C157        O171   1.236       .  S
C157        O172   1.271       .  A
C157        H182   1.081       .  S
O158        C181   1.273       .  A
O159       Mg173   2.136       .  S
O160       Mg190   2.275       .  S
C161        O174   1.275       .  A
C161        O166   1.276       .  A
C161       C1139   1.484       .  S
C162        O189   1.273       .  A
C162       C1039   1.472       .  S
Mg163       O170   2.168       .  S
Mg163       O171   2.158       .  S
Mg163       O164   2.313       .  S
Mg163       O165   2.289       .  S
Mg163       O192   2.295       .  S
O165        C169   1.268       .  A
O166       Mg173   2.303       .  S
O167        C186   1.263       .  A
O168        C188   1.277       .  A
O168       Mg184   2.320       .  S
O170       Mg184   2.155       .  S
O170        C181   1.237       .  S
O171       Mg190   2.151       .  S
O172       Mg184   2.302       .  S
Mg173       O189   2.285       .  S
O174       Mg190   2.270       .  S
H175        C180   1.081       .  S
O176       Mg184   2.150       .  S
O176        C179   1.238       .  S
H177        C179   1.081       .  S
H178        C181   1.081       .  S
O183       Mg190   2.278       .  S
C186        O191   1.278       .  A
C186       C1029   1.470       .  S
O187        C188   1.271       .  A
C188       C1117   1.482       .  S
O193       Mg195   2.126   1_554  S
O193       Mg201   2.127       .  S
O193        C228   1.238       .  S
C194        O207   1.235       .  S
C194        O231   1.267       .  A
C194        H233   1.081       .  S
Mg195       O224   2.146       .  S
Mg195       O239   2.344       .  S
Mg195       O235   2.240       .  S
Mg195       O206   2.314       .  S
O196       Mg238   2.151       .  S
O196       Mg221   2.148       .  S
O196        C217   1.237       .  S
O197        C228   1.271       .  A
O197       Mg221   2.301       .  S
C198        O200   1.273       .  A
C198        O212   1.278       .  A
C198       C1007   1.482       .  S
O199        C227   1.274       .  A
O199       Mg201   2.310       .  S
O200       Mg232   2.266       .  S
Mg201       O207   2.107       .  S
Mg201       O215   2.226       .  S
Mg201       O203   2.271       .  S
C202        O240   1.276       .  A
C202        O208   1.272       .  A
C202        C941   1.486       .  S
O203        C210   1.271       .  A
H204        C217   1.081       .  S
C205        O219   1.237       .  S
C205        O220   1.272       .  A
C205        H230   1.081       .  S
O206        C229   1.273       .  A
O207       Mg221   2.146       .  S
O208       Mg238   2.273       .  S
C209        O222   1.273       .  A
C209        O214   1.280       .  A
C209        C973   1.485       .  S
C210        O237   1.278       .  A
C210       C1095   1.479       .  S
Mg211       O218   2.162   1_554  S
Mg211       O219   2.153       .  S
Mg211       O212   2.322   1_554  S
Mg211       O213   2.299       .  S
Mg211       O240   2.298       .  S
O213        C217   1.271       .  A
O214       Mg221   2.335       .  S
O215        C234   1.267   1_554  A
O216        C236   1.279       .  A
O216       Mg232   2.341       .  S
O218       Mg232   2.149       .  S
O218        C229   1.237       .  S
O219       Mg238   2.154       .  S
O220       Mg232   2.310   1_554  S
Mg221       O237   2.314       .  S
O222       Mg238   2.256       .  S
H223        C228   1.081       .  S
O224       Mg232   2.155       .  S
O224        C227   1.240   1_556  S
H225        C227   1.081   1_556  S
H226        C229   1.081       .  S
O231       Mg238   2.279       .  S
C234        O239   1.278       .  A
C234        C919   1.486       .  S
O235        C236   1.271       .  A
C236        C951   1.487       .  S
O241       Mg243   2.139       .  S
O241       Mg249   2.141       .  S
O241        C276   1.238       .  S
C242        O255   1.236       .  S
C242        O279   1.267       .  A
C242        H281   1.081       .  S
Mg243       O272   2.153       .  S
Mg243       O287   2.349       .  S
Mg243       O283   2.273       .  S
Mg243       O254   2.316       .  S
O244       Mg286   2.145       .  S
O244       Mg269   2.140       .  S
O244        C265   1.237       .  S
O245        C276   1.272       .  A
O245       Mg269   2.304       .  S
C246        O248   1.272       .  A
C246        O260   1.280       .  A
C246        C863   1.485       .  S
O247        C275   1.272       .  A
O247       Mg249   2.303       .  S
O248       Mg280   2.253       .  S
Mg249       O255   2.105       .  S
Mg249       O263   2.205       .  S
Mg249       O251   2.274       .  S
C250        O288   1.279       .  A
C250        O256   1.272       .  A
C250        C897   1.491       .  S
O251        C258   1.271       .  A
H252        C265   1.081       .  S
C253        O267   1.236       .  S
C253        O268   1.270       .  A
C253        H278   1.081       .  S
O254        C277   1.273       .  A
O255       Mg269   2.143       .  S
O256       Mg286   2.267       .  S
C257        O270   1.274       .  A
C257        O262   1.280       .  A
C257        C985   1.487       .  S
C258        O285   1.277       .  A
C258        C841   1.487       .  S
Mg259       O266   2.173       .  S
Mg259       O267   2.152       .  S
Mg259       O260   2.335       .  S
Mg259       O261   2.300       .  S
Mg259       O288   2.323       .  S
O261        C265   1.271       .  A
O262       Mg269   2.332       .  S
O263        C282   1.265       .  A
O264        C284   1.275       .  A
O264       Mg280   2.309       .  S
O266       Mg280   2.157       .  S
O266        C277   1.237       .  S
O267       Mg286   2.144       .  S
O268       Mg280   2.299       .  S
Mg269       O285   2.299       .  S
O270       Mg286   2.264       .  S
H271        C276   1.081       .  S
O272       Mg280   2.150       .  S
O272        C275   1.238       .  S
H273        C275   1.081       .  S
H274        C277   1.081       .  S
O279       Mg286   2.278       .  S
C282        O287   1.279       .  A
C282       C1051   1.484       .  S
O283        C284   1.274       .  A
C284        C963   1.484       .  S
O289       Mg291   2.125       .  S
O289       Mg297   2.124       .  S
O289        C324   1.241       .  S
C290        O327   1.265       .  A
C290        H329   1.081       .  S
C290        O303   1.262       .  A
Mg291       O320   2.152       .  S
Mg291       O335   2.371       .  S
Mg291       O331   2.255       .  S
Mg291       O302   2.325       .  S
O292       Mg334   2.164       .  S
O292       Mg317   2.114       .  S
O292        C313   1.235       .  S
O293        C324   1.274       .  A
O293       Mg317   2.306       .  S
C294        O296   1.272       .  A
C294        O308   1.280       .  A
C294        C885   1.488       .  S
O295        C323   1.273       .  A
O295       Mg297   2.307       .  S
O296       Mg328   2.260       .  S
Mg297       O311   2.194       .  S
Mg297       O299   2.271       .  S
Mg297       O303   2.154       .  S
C298        O336   1.280       .  A
C298        O304   1.271       .  A
C298        C929   1.487       .  S
O299        C306   1.271       .  A
H300        C313   1.081       .  S
C301        O315   1.236       .  S
C301        O316   1.271       .  A
C301        H326   1.081       .  S
O302        C325   1.275       .  A
O303       Mg317   2.200       .  S
O304       Mg334   2.253       .  S
C305        O318   1.276       .  A
C305        O310   1.276       .  A
C305        C819   1.483       .  S
C306        O333   1.273       .  A
C306        C787   1.472       .  S
Mg307       O314   2.184       .  S
Mg307       O315   2.166       .  S
Mg307       O308   2.333       .  S
Mg307       O309   2.286       .  S
Mg307       O336   2.325       .  S
O309        C313   1.268       .  A
O310       Mg317   2.287       .  S
O311        C330   1.265       .  A
O312        C332   1.278       .  A
O312       Mg328   2.322       .  S
O314       Mg328   2.156       .  S
O314        C325   1.238       .  S
O315       Mg334   2.161       .  S
O316       Mg328   2.305       .  S
Mg317       O333   2.283       .  S
O318       Mg334   2.286       .  S
H319        C324   1.081       .  S
O320       Mg328   2.149       .  S
O320        C323   1.239       .  S
H321        C323   1.081       .  S
H322        C325   1.081       .  S
O327       Mg334   2.283       .  S
C330        O335   1.281       .  A
C330       C1271   1.483       .  S
O331        C332   1.272       .  A
C332        C809   1.485       .  S
O337       Mg339   2.130       .  S
O337       Mg345   2.140       .  S
O337        C372   1.238       .  S
C338        O351   1.235       .  S
C338        O375   1.267       .  A
C338        H377   1.081       .  S
Mg339       O368   2.156       .  S
Mg339       O383   2.355       .  S
Mg339       O379   2.257       .  S
Mg339       O350   2.316       .  S
O340       Mg382   2.150       .  S
O340       Mg365   2.130       .  S
O340        C361   1.235       .  S
O341        C372   1.271       .  A
O341       Mg365   2.290       .  S
C342        O344   1.272       .  A
C342        O356   1.276       .  A
C342        C995   1.483       .  S
O343        C371   1.272       .  A
O343       Mg345   2.299       .  S
O344       Mg376   2.260       .  S
Mg345       O351   2.106       .  S
Mg345       O359   2.207       .  S
Mg345       O347   2.280       .  S
C346        O384   1.276       .  A
C346        O352   1.277       .  A
C346        C875   1.489       .  S
O347        C354   1.271       .  A
H348        C361   1.081       .  S
C349        O363   1.238       .  S
C349        O364   1.273       .  A
C349        H374   1.081       .  S
O350        C373   1.273       .  A
O351       Mg365   2.146       .  S
O352       Mg382   2.305       .  S
C353        O366   1.277       .  A
C353        O358   1.278       .  A
C353        C797   1.486       .  S
C354        O381   1.275       .  A
C354        C765   1.472       .  S
Mg355       O362   2.168       .  S
Mg355       O363   2.157       .  S
Mg355       O356   2.310       .  S
Mg355       O357   2.289       .  S
Mg355       O384   2.288       .  S
O357        C361   1.268       .  A
O358       Mg365   2.307       .  S
O359        C378   1.267       .  A
O360        C380   1.277       .  A
O360       Mg376   2.315       .  S
O362       Mg376   2.152       .  S
O362        C373   1.237       .  S
O363       Mg382   2.158       .  S
O364       Mg376   2.309       .  S
Mg365       O381   2.289       .  S
O366       Mg382   2.283       .  S
H367        C372   1.081       .  S
O368       Mg376   2.140       .  S
O368        C371   1.238       .  S
H369        C371   1.081       .  S
H370        C373   1.081       .  S
O375       Mg382   2.281       .  S
C378        O383   1.279       .  A
C378       C1183   1.484       .  S
O379        C380   1.273       .  A
C380        C831   1.482       .  S
O385       Mg387   2.130       .  S
O385       Mg393   2.132       .  S
O385        C420   1.238       .  S
C386        O399   1.236       .  S
C386        O423   1.267       .  A
C386        H425   1.081       .  S
Mg387       O416   2.151       .  S
Mg387       O431   2.343       .  S
Mg387       O427   2.261       .  S
Mg387       O398   2.314       .  S
O388       Mg430   2.146       .  S
O388       Mg413   2.134       .  S
O388        C409   1.236       .  S
O389        C420   1.272       .  A
O389       Mg413   2.304       .  S
C390        O392   1.273       .  A
C390        O404   1.280       .  A
C390        C743   1.490       .  S
O391        C419   1.273       .  A
O391       Mg393   2.306       .  S
O392       Mg424   2.260       .  S
Mg393       O399   2.105       .  S
Mg393       O407   2.217       .  S
Mg393       O395   2.256       .  S
C394        O432   1.277       .  A
C394        O400   1.274       .  A
C394        C709   1.486       .  S
O395        C402   1.269       .  A
H396        C409   1.081       .  S
C397        O411   1.236       .  S
C397        O412   1.270       .  A
C397        H422   1.081       .  S
O398        C421   1.273       .  A
O399       Mg413   2.147       .  S
O400       Mg430   2.281       .  S
C401        O414   1.274       .  A
C401        O406   1.279       .  A
C401        C699   1.487       .  S
C402        O429   1.275       .  A
C402        C775   1.477       .  S
Mg403       O410   2.164       .  S
Mg403       O411   2.157       .  S
Mg403       O404   2.341       .  S
Mg403       O405   2.295       .  S
Mg403       O432   2.297       .  S
O405        C409   1.270       .  A
O406       Mg413   2.324       .  S
O407        C426   1.266       .  A
O408        C428   1.277       .  A
O408       Mg424   2.309       .  S
O410       Mg424   2.154       .  S
O410        C421   1.237       .  S
O411       Mg430   2.148       .  S
O412       Mg424   2.298       .  S
Mg413       O429   2.297       .  S
O414       Mg430   2.263       .  S
H415        C420   1.081       .  S
O416       Mg424   2.145       .  S
O416        C419   1.239       .  S
H417        C419   1.081       .  S
H418        C421   1.081       .  S
O423       Mg430   2.280       .  S
C426        O431   1.278       .  A
C426       C1161   1.483       .  S
O427        C428   1.272       .  A
C428        C677   1.484   1_554  S
O433       Mg435   2.123       .  S
O433       Mg441   2.140       .  S
O433        C468   1.237       .  S
C434        O447   1.237       .  S
C434        O471   1.269       .  A
C434        H473   1.081       .  S
Mg435       O464   2.154       .  S
Mg435       O479   2.359       .  S
Mg435       O475   2.259       .  S
Mg435       O446   2.321       .  S
O436       Mg478   2.142       .  S
O436       Mg461   2.133       .  S
O436        C457   1.235       .  S
O437        C468   1.270       .  A
O437       Mg461   2.292       .  S
C438        O440   1.272       .  A
C438        O452   1.278       .  A
C438        C655   1.484       .  S
O439        C467   1.273       .  A
O439       Mg441   2.309       .  S
O440       Mg472   2.251       .  S
Mg441       O447   2.114       .  S
Mg441       O455   2.227       .  S
Mg441       O443   2.303       .  S
C442        O480   1.278       .  A
C442        O448   1.274       .  A
C442        C633   1.489       .  S
O443        C450   1.275       .  A
H444        C457   1.081       .  S
C445        O459   1.236       .  S
C445        O460   1.271       .  A
C445        H470   1.081       .  S
O446        C469   1.274       .  A
O447       Mg461   2.146       .  S
O448       Mg478   2.285       .  S
C449        O462   1.272       .  A
C449        O454   1.276       .  A
C449        C665   1.481       .  S
C450        O477   1.274       .  A
C450        C753   1.479       .  S
Mg451       O458   2.177       .  S
Mg451       O459   2.153       .  S
Mg451       O452   2.332       .  S
Mg451       O453   2.292       .  S
Mg451       O480   2.311       .  S
O453        C457   1.268       .  A
O454       Mg461   2.310       .  S
O455        C474   1.269       .  A
O456        C476   1.277       .  A
O456       Mg472   2.320       .  S
O458       Mg472   2.151       .  S
O458        C469   1.238       .  S
O459       Mg478   2.137       .  S
O460       Mg472   2.300       .  S
Mg461       O477   2.269       .  S
O462       Mg478   2.249       .  S
H463        C468   1.081       .  S
O464       Mg472   2.156       .  S
O464        C467   1.239       .  S
H465        C467   1.081       .  S
H466        C469   1.081       .  S
O471       Mg478   2.283       .  S
C474        O479   1.281       .  A
C474       C1249   1.488       .  S
O475        C476   1.272       .  A
C476        C687   1.486       .  S
O481       Mg483   2.134       .  S
O481       Mg489   2.140       .  S
O481        C516   1.239       .  S
C482        O495   1.235       .  S
C482        O519   1.268       .  A
C482        H521   1.081       .  S
Mg483       O512   2.156       .  S
Mg483       O527   2.357       .  S
Mg483       O523   2.277       .  S
Mg483       O494   2.315       .  S
O484       Mg526   2.145       .  S
O484       Mg509   2.132       .  S
O484        C505   1.236       .  S
O485        C516   1.273       .  A
O485       Mg509   2.301       .  S
C486        O488   1.269       .  A
C486        O500   1.278       .  A
C486        C643   1.482       .  S
O487        C515   1.271       .  A
O487       Mg489   2.294       .  S
O488       Mg520   2.245       .  S
Mg489       O495   2.117       .  S
Mg489       O503   2.221       .  S
Mg489       O491   2.278       .  S
C490        O528   1.275       .  A
C490        O496   1.275       .  A
C490        C721   1.483       .  S
O491        C498   1.272       .  A
H492        C505   1.081       .  S
C493        O507   1.237       .  S
C493        O508   1.272       .  A
C493        H518   1.081       .  S
O494        C517   1.273       .  A
O495       Mg509   2.139       .  S
O496       Mg526   2.296       .  S
C497        O510   1.276       .  A
C497        O502   1.279       .  A
C497        C599   1.490       .  S
C498        O525   1.275       .  A
C498       C1061   1.480       .  S
Mg499       O506   2.161       .  S
Mg499       O507   2.153       .  S
Mg499       O500   2.325       .  S
Mg499       O501   2.297       .  S
Mg499       O528   2.284       .  S
O501        C505   1.270       .  A
O502       Mg509   2.329       .  S
O503        C522   1.268       .  A
O504        C524   1.274       .  A
O504       Mg520   2.294       .  S
O506       Mg520   2.152       .  S
O506        C517   1.237       .  S
O507       Mg526   2.153       .  S
O508       Mg520   2.305       .  S
Mg509       O525   2.274       .  S
O510       Mg526   2.274       .  S
H511        C516   1.081       .  S
O512       Mg520   2.134       .  S
O512        C515   1.238       .  S
H513        C515   1.081       .  S
H514        C517   1.081       .  S
O519       Mg526   2.284       .  S
C522        O527   1.280       .  A
C522        C853   1.479       .  S
O523        C524   1.275       .  A
C524        C577   1.485       .  S
O529       Mg531   2.145       .  S
O529       Mg537   2.142       .  S
O529        C564   1.238       .  S
C530        O543   1.235       .  S
C530        O567   1.268       .  A
C530        H569   1.081       .  S
Mg531       O560   2.165       .  S
Mg531       O575   2.356       .  S
Mg531       O571   2.291       .  S
Mg531       O542   2.312       .  S
O532       Mg574   2.152       .  S
O532       Mg557   2.129       .  S
O532        C553   1.236       .  S
O533        C564   1.272       .  A
O533       Mg557   2.301       .  S
C534        O536   1.273       .  A
C534        O548   1.277       .  A
C534        C731   1.484       .  S
O535        C563   1.272       .  A
O535       Mg537   2.301       .  S
O536       Mg568   2.277       .  S
Mg537       O543   2.108       .  S
Mg537       O551   2.213       .  S
Mg537       O539   2.293       .  S
C538        O576   1.276       .  A
C538        O544   1.273       .  A
C538        C621   1.485       .  S
O539        C546   1.274       .  A
H540        C553   1.081       .  S
C541        O555   1.236       .  S
C541        O556   1.271       .  A
C541        H566   1.081       .  S
O542        C565   1.273       .  A
O543       Mg557   2.140       .  S
O544       Mg574   2.279       .  S
C545        O558   1.274       .  A
C545        O550   1.276       .  A
C545        C589   1.484       .  S
C546        O573   1.274       .  A
C546       C1017   1.483       .  S
Mg547       O554   2.163       .  S
Mg547       O555   2.153       .  S
Mg547       O548   2.322       .  S
Mg547       O549   2.293       .  S
Mg547       O576   2.294       .  S
O549        C553   1.269       .  A
O550       Mg557   2.302       .  S
O551        C570   1.267       .  A
O552        C572   1.275   1_556  A
O552       Mg568   2.295       .  S
O554       Mg568   2.152       .  S
O554        C565   1.237       .  S
O555       Mg574   2.145       .  S
O556       Mg568   2.302       .  S
Mg557       O573   2.273       .  S
O558       Mg574   2.270       .  S
H559        C564   1.081       .  S
O560       Mg568   2.155       .  S
O560        C563   1.238       .  S
H561        C563   1.081       .  S
H562        C565   1.081       .  S
O567       Mg574   2.283       .  S
C570        O575   1.281       .  A
C570        C907   1.482       .  S
O571        C572   1.276   1_556  A
C572        C611   1.488       .  S
C577        C578   1.404       .  A
C577        C582   1.402       .  A
C578        H591   1.083       .  S
C578        C579   1.397       .  A
C579        H592   1.077       .  S
C579        C580   1.414       .  A
C580        C586   1.431       .  A
C580        C581   1.423       .  A
C581        C583   1.399       .  A
C581        C582   1.405       .  A
C582        H593   1.084       .  S
C583        H594   1.084       .  S
C583        C584   1.389       .  A
C584        H595   1.084       .  S
C584        C585   1.399       .  A
C585        C586   1.422       .  A
C585        C590   1.404       .  A
C586        C587   1.415       .  A
C587        H596   1.077       .  S
C587        C588   1.398       .  A
C588        H597   1.083       .  S
C588        C589   1.402       .  A
C589        C590   1.403       .  A
C590        H598   1.084       .  S
C599        C600   1.403       .  A
C599        C604   1.405       .  A
C600        H613   1.083       .  S
C600        C601   1.397       .  A
C601        H614   1.077       .  S
C601        C602   1.415       .  A
C602        C608   1.433       .  A
C602        C603   1.422       .  A
C603        C605   1.400       .  A
C603        C604   1.409       .  A
C604        H615   1.084       .  S
C605        H616   1.084       .  S
C605        C606   1.392       .  A
C606        H617   1.084       .  S
C606        C607   1.400       .  A
C607        C608   1.423       .  A
C607        C612   1.410       .  A
C608        C609   1.414       .  A
C609        H618   1.077       .  S
C609        C610   1.396       .  A
C610        H619   1.083       .  S
C610        C611   1.403       .  A
C611        C612   1.404       .  A
C612        H620   1.084       .  S
C621        C622   1.401       .  A
C621        C626   1.405       .  A
C622        H635   1.083       .  S
C622        C623   1.400       .  A
C623        H636   1.077   1_565  S
C623        C624   1.418       .  A
C624        C630   1.431   1_565  A
C624        C625   1.420       .  A
C625        C627   1.400       .  A
C625        C626   1.403       .  A
C626        H637   1.084       .  S
C627        H638   1.084       .  S
C627        C628   1.390       .  A
C628        H639   1.084       .  S
C628        C629   1.399   1_565  A
C629        C630   1.424       .  A
C629        C634   1.409       .  A
C630        C631   1.411       .  A
C631        H640   1.077       .  S
C631        C632   1.395       .  A
C632        H641   1.083       .  S
C632        C633   1.405       .  A
C633        C634   1.403       .  A
C634        H642   1.084       .  S
C643        C644   1.399       .  A
C643        C648   1.406       .  A
C644        H657   1.083       .  S
C644        C645   1.396       .  A
C645        H658   1.077   1_565  S
C645        C646   1.416       .  A
C646        C652   1.429   1_565  A
C646        C647   1.420       .  A
C647        C649   1.402       .  A
C647        C648   1.406       .  A
C648        H659   1.085       .  S
C649        H660   1.084       .  S
C649        C650   1.393       .  A
C650        H661   1.084       .  S
C650        C651   1.400   1_565  A
C651        C652   1.423       .  A
C651        C656   1.411       .  A
C652        C653   1.411       .  A
C653        H662   1.077       .  S
C653        C654   1.392       .  A
C654        H663   1.083       .  S
C654        C655   1.402       .  A
C655        C656   1.404       .  A
C656        H664   1.084       .  S
C665        C666   1.401       .  A
C665        C670   1.403       .  A
C666        H679   1.083       .  S
C666        C667   1.392       .  A
C667        H680   1.077       .  S
C667        C668   1.413       .  A
C668        C674   1.428       .  A
C668        C669   1.422       .  A
C669        C671   1.400       .  A
C669        C670   1.407       .  A
C670        H681   1.084       .  S
C671        H682   1.084       .  S
C671        C672   1.391       .  A
C672        H683   1.084       .  S
C672        C673   1.401       .  A
C673        C674   1.421       .  A
C673        C678   1.407       .  A
C674        C675   1.414       .  A
C675        H684   1.077       .  S
C675        C676   1.394       .  A
C676        H685   1.083       .  S
C676        C677   1.401       .  A
C677        C678   1.405       .  A
C678        H686   1.084       .  S
C687        C688   1.401       .  A
C687        C692   1.405       .  A
C688        H701   1.083       .  S
C688        C689   1.397       .  A
C689        H702   1.077       .  S
C689        C690   1.416       .  A
C690        C696   1.431       .  A
C690        C691   1.421       .  A
C691        C693   1.400       .  A
C691        C692   1.406       .  A
C692        H703   1.084       .  S
C693        H704   1.084       .  S
C693        C694   1.391       .  A
C694        H705   1.084       .  S
C694        C695   1.400       .  A
C695        C696   1.423       .  A
C695        C700   1.409       .  A
C696        C697   1.413       .  A
C697        H706   1.077       .  S
C697        C698   1.395       .  A
C698        H707   1.083       .  S
C698        C699   1.403       .  A
C699        C700   1.404       .  A
C700        H708   1.084       .  S
C709        C710   1.400       .  A
C709        C714   1.406       .  A
C710        H723   1.083       .  S
C710        C711   1.400       .  A
C711        H724   1.077   1_545  S
C711        C712   1.417       .  A
C712        C718   1.431   1_545  A
C712        C713   1.420       .  A
C713        C715   1.400       .  A
C713        C714   1.403       .  A
C714        H725   1.084       .  S
C715        H726   1.084       .  S
C715        C716   1.389       .  A
C716        H727   1.084       .  S
C716        C717   1.399   1_545  A
C717        C718   1.424       .  A
C717        C722   1.406       .  A
C718        C719   1.413       .  A
C719        H728   1.077       .  S
C719        C720   1.396       .  A
C720        H729   1.083       .  S
C720        C721   1.402       .  A
C721        C722   1.402       .  A
C722        H730   1.084       .  S
C731        C732   1.401       .  A
C731        C736   1.403       .  A
C732        H745   1.083       .  S
C732        C733   1.400       .  A
C733        H746   1.077   1_565  S
C733        C734   1.417       .  A
C734        C740   1.433   1_566  A
C734        C735   1.422   1_556  A
C735        C737   1.400       .  A
C735        C736   1.408   1_554  A
C736        H747   1.085   1_556  S
C737        H748   1.084       .  S
C737        C738   1.392       .  A
C738        H749   1.084       .  S
C738        C739   1.400   1_565  A
C739        C740   1.423       .  A
C739        C744   1.410       .  A
C740        C741   1.413       .  A
C741        H750   1.078   1_554  S
C741        C742   1.397       .  A
C742        H751   1.083       .  S
C742        C743   1.404       .  A
C743        C744   1.404       .  A
C744        H752   1.084       .  S
C753        C754   1.400       .  A
C753        C758   1.403       .  A
C754        H767   1.084       .  S
C754        C755   1.395       .  A
C755        H768   1.077       .  S
C755        C756   1.413       .  A
C756        C762   1.430       .  A
C756        C757   1.423       .  A
C757        C759   1.400       .  A
C757        C758   1.409       .  A
C758        H769   1.085       .  S
C759        H770   1.084       .  S
C759        C760   1.393       .  A
C760        H771   1.084       .  S
C760        C761   1.400       .  A
C761        C762   1.422       .  A
C761        C766   1.408       .  A
C762        C763   1.416       .  A
C763        H772   1.078       .  S
C763        C764   1.396       .  A
C764        H773   1.084       .  S
C764        C765   1.397       .  A
C765        C766   1.401       .  A
C766        H774   1.085       .  S
C775        C776   1.403       .  A
C775        C780   1.399       .  A
C776        H789   1.084       .  S
C776        C777   1.391       .  A
C777        H790   1.078       .  S
C777        C778   1.409       .  A
C778        C784   1.427       .  A
C778        C779   1.425       .  A
C779        C781   1.399       .  A
C779        C780   1.408       .  A
C780        H791   1.084       .  S
C781        H792   1.084       .  S
C781        C782   1.390       .  A
C782        H793   1.084       .  S
C782        C783   1.400       .  A
C783        C784   1.419       .  A
C783        C788   1.400       .  A
C784        C785   1.419       .  A
C785        H794   1.078       .  S
C785        C786   1.398       .  A
C786        H795   1.083       .  S
C786        C787   1.397       .  A
C787        C788   1.402       .  A
C788        H796   1.085       .  S
C797        C798   1.403       .  A
C797        C802   1.403       .  A
C798        H811   1.083       .  S
C798        C799   1.398       .  A
C799        H812   1.077       .  S
C799        C800   1.415       .  A
C800        C806   1.432       .  A
C800        C801   1.422       .  A
C801        C803   1.399       .  A
C801        C802   1.405       .  A
C802        H813   1.084       .  S
C803        H814   1.084       .  S
C803        C804   1.389       .  A
C804        H815   1.084       .  S
C804        C805   1.399       .  A
C805        C806   1.422       .  A
C805        C810   1.405       .  A
C806        C807   1.415       .  A
C807        H816   1.077       .  S
C807        C808   1.398       .  A
C808        H817   1.083       .  S
C808        C809   1.403       .  A
C809        C810   1.402       .  A
C810        H818   1.084       .  S
C819        C820   1.402       .  A
C819        C824   1.403       .  A
C820        H833   1.083       .  S
C820        C821   1.394       .  A
C821        H834   1.077       .  S
C821        C822   1.413       .  A
C822        C828   1.429       .  A
C822        C823   1.423       .  A
C823        C825   1.399       .  A
C823        C824   1.406       .  A
C824        H835   1.084       .  S
C825        H836   1.084       .  S
C825        C826   1.390       .  A
C826        H837   1.084       .  S
C826        C827   1.400       .  A
C827        C828   1.422       .  A
C827        C832   1.405   1_554  A
C828        C829   1.415       .  A
C829        H838   1.077       .  S
C829        C830   1.396   1_554  A
C830        H839   1.083       .  S
C830        C831   1.401       .  A
C831        C832   1.403       .  A
C832        H840   1.084       .  S
C841        C842   1.406       .  A
C841        C846   1.400       .  A
C842        H855   1.083       .  S
C842        C843   1.398       .  A
C843        H856   1.078       .  S
C843        C844   1.412       .  A
C844        C850   1.434       .  A
C844        C845   1.425       .  A
C845        C847   1.397       .  A
C845        C846   1.406       .  A
C846        H857   1.084       .  S
C847        H858   1.084       .  S
C847        C848   1.387       .  A
C848        H859   1.084       .  S
C848        C849   1.399       .  A
C849        C850   1.420       .  A
C849        C854   1.399       .  A
C850        C851   1.421       .  A
C851        H860   1.078       .  S
C851        C852   1.406       .  A
C852        H861   1.083       .  S
C852        C853   1.399       .  A
C853        C854   1.401       .  A
C854        H862   1.085       .  S
C863        C864   1.404       .  A
C863        C868   1.401       .  A
C864        H877   1.083       .  S
C864        C865   1.398       .  A
C865        H878   1.078       .  S
C865        C866   1.414       .  A
C866        C872   1.432   1_455  A
C866        C867   1.423       .  A
C867        C869   1.399   1_455  A
C867        C868   1.407       .  A
C868        H879   1.084       .  S
C869        H880   1.084       .  S
C869        C870   1.390       .  A
C870        H881   1.084       .  S
C870        C871   1.400       .  A
C871        C872   1.421       .  A
C871        C876   1.405       .  A
C872        C873   1.416       .  A
C873        H882   1.078   1_655  S
C873        C874   1.401       .  A
C874        H883   1.083       .  S
C874        C875   1.403       .  A
C875        C876   1.404       .  A
C876        H884   1.084       .  S
C885        C886   1.401       .  A
C885        C890   1.407       .  A
C886        H899   1.083       .  S
C886        C887   1.398       .  A
C887        H900   1.077   1_655  S
C887        C888   1.417       .  A
C888        C894   1.431   1_655  A
C888        C889   1.420       .  A
C889        C891   1.402       .  A
C889        C890   1.408       .  A
C890        H901   1.084       .  S
C891        H902   1.084       .  S
C891        C892   1.394       .  A
C892        H903   1.084       .  S
C892        C893   1.400   1_655  A
C893        C894   1.424       .  A
C893        C898   1.414       .  A
C894        C895   1.409       .  A
C895        H904   1.077       .  S
C895        C896   1.391       .  A
C896        H905   1.083       .  S
C896        C897   1.406       .  A
C897        C898   1.404       .  A
C898        H906   1.084       .  S
C907        C908   1.404       .  A
C907        C912   1.400       .  A
C908        H921   1.084       .  S
C908        C909   1.392       .  A
C909        H922   1.077       .  S
C909        C910   1.410       .  A
C910        C916   1.431       .  A
C910        C911   1.426       .  A
C911        C913   1.398   1_556  A
C911        C912   1.410       .  A
C912        H923   1.084       .  S
C913        H924   1.084       .  S
C913        C914   1.390       .  A
C914        H925   1.084       .  S
C914        C915   1.401   1_554  A
C915        C916   1.419       .  A
C915        C920   1.403       .  A
C916        C917   1.419       .  A
C917        H926   1.077       .  S
C917        C918   1.400       .  A
C918        H927   1.083       .  S
C918        C919   1.399       .  A
C919        C920   1.407       .  A
C920        H928   1.084   1_556  S
C929        C930   1.406       .  A
C929        C934   1.401       .  A
C930        H943   1.083       .  S
C930        C931   1.392       .  A
C931        H944   1.078       .  S
C931        C932   1.410       .  A
C932        C938   1.431   1_655  A
C932        C933   1.425       .  A
C933        C935   1.398   1_655  A
C933        C934   1.410       .  A
C934        H945   1.084       .  S
C935        H946   1.084       .  S
C935        C936   1.390       .  A
C936        H947   1.084       .  S
C936        C937   1.401       .  A
C937        C938   1.419       .  A
C937        C942   1.403       .  A
C938        C939   1.418       .  A
C939        H948   1.077   1_455  S
C939        C940   1.400       .  A
C940        H949   1.083       .  S
C940        C941   1.400       .  A
C941        C942   1.406       .  A
C942        H950   1.084       .  S
C951        C952   1.403       .  A
C951        C956   1.404       .  A
C952        H965   1.083       .  S
C952        C953   1.392       .  A
C953        H966   1.077       .  S
C953        C954   1.411       .  A
C954        C960   1.430       .  A
C954        C955   1.424       .  A
C955        C957   1.400       .  A
C955        C956   1.411       .  A
C956        H967   1.084       .  S
C957        H968   1.084       .  S
C957        C958   1.392       .  A
C958        H969   1.084       .  S
C958        C959   1.401       .  A
C959        C960   1.421       .  A
C959        C964   1.407       .  A
C960        C961   1.416       .  A
C961        H970   1.077       .  S
C961        C962   1.396       .  A
C962        H971   1.083       .  S
C962        C963   1.400       .  A
C963        C964   1.405       .  A
C964        H972   1.084       .  S
C973        C974   1.403       .  A
C973        C978   1.402       .  A
C974        H987   1.084       .  S
C974        C975   1.396       .  A
C975        H988   1.077       .  S
C975        C976   1.414       .  A
C976        C982   1.432       .  A
C976        C977   1.423       .  A
C977        C979   1.399       .  A
C977        C978   1.408       .  A
C978        H989   1.084       .  S
C979        H990   1.084       .  S
C979        C980   1.391       .  A
C980        H991   1.084       .  S
C980        C981   1.400       .  A
C981        C982   1.422       .  A
C981        C986   1.408       .  A
C982        C983   1.415       .  A
C983        H992   1.077       .  S
C983        C984   1.397       .  A
C984        H993   1.083       .  S
C984        C985   1.403       .  A
C985        C986   1.403       .  A
C986        H994   1.084       .  S
C995        C996   1.402       .  A
C995       C1000   1.402       .  A
C996       H1009   1.083       .  S
C996        C997   1.398       .  A
C997       H1010   1.077       .  S
C997        C998   1.415       .  A
C998       C1004   1.431   1_655  A
C998        C999   1.423       .  A
C999       C1001   1.399   1_655  A
C999       C1000   1.405       .  A
C1000      H1011   1.084       .  S
C1001      H1012   1.084       .  S
C1001      C1002   1.389       .  A
C1002      H1013   1.084       .  S
C1002      C1003   1.400       .  A
C1003      C1004   1.422       .  A
C1003      C1008   1.405       .  A
C1004      C1005   1.416       .  A
C1005      H1014   1.077   1_455  S
C1005      C1006   1.399       .  A
C1006      H1015   1.083       .  S
C1006      C1007   1.401       .  A
C1007      C1008   1.402       .  A
C1008      H1016   1.085       .  S
C1017      C1018   1.400       .  A
C1017      C1022   1.405       .  A
C1018      H1031   1.083       .  S
C1018      C1019   1.395       .  A
C1019      H1032   1.077       .  S
C1019      C1020   1.416       .  A
C1020      C1026   1.428       .  A
C1020      C1021   1.420       .  A
C1021      C1023   1.401       .  A
C1021      C1022   1.405       .  A
C1022      H1033   1.084       .  S
C1023      H1034   1.084       .  S
C1023      C1024   1.392       .  A
C1024      H1035   1.084       .  S
C1024      C1025   1.399       .  A
C1025      C1026   1.426       .  A
C1025      C1030   1.411       .  A
C1026      C1027   1.410       .  A
C1027      H1036   1.077       .  S
C1027      C1028   1.388       .  A
C1028      H1037   1.084       .  S
C1028      C1029   1.399       .  A
C1029      C1030   1.398       .  A
C1030      H1038   1.084       .  S
C1039      C1040   1.401       .  A
C1039      C1044   1.397       .  A
C1040      H1053   1.084       .  S
C1040      C1041   1.394       .  A
C1041      H1054   1.077       .  S
C1041      C1042   1.412       .  A
C1042      C1048   1.429       .  A
C1042      C1043   1.425       .  A
C1043      C1045   1.398       .  A
C1043      C1044   1.405       .  A
C1044      H1055   1.085       .  S
C1045      H1056   1.084       .  S
C1045      C1046   1.388       .  A
C1046      H1057   1.084       .  S
C1046      C1047   1.400       .  A
C1047      C1048   1.419       .  A
C1047      C1052   1.399       .  A
C1048      C1049   1.419       .  A
C1049      H1058   1.077       .  S
C1049      C1050   1.400       .  A
C1050      H1059   1.083       .  S
C1050      C1051   1.399       .  A
C1051      C1052   1.406       .  A
C1052      H1060   1.084       .  S
C1061      C1062   1.404       .  A
C1061      C1066   1.398       .  A
C1062      H1075   1.083       .  S
C1062      C1063   1.398       .  A
C1063      H1076   1.078       .  S
C1063      C1064   1.413       .  A
C1064      C1070   1.430       .  A
C1064      C1065   1.424       .  A
C1065      C1067   1.397       .  A
C1065      C1066   1.401       .  A
C1066      H1077   1.084       .  S
C1067      H1078   1.084       .  S
C1067      C1068   1.385       .  A
C1068      H1079   1.084       .  S
C1068      C1069   1.397       .  A
C1069      C1070   1.421       .  A
C1069      C1074   1.395       .  A
C1070      C1071   1.420       .  A
C1071      H1080   1.078       .  S
C1071      C1072   1.402       .  A
C1072      H1081   1.083       .  S
C1072      C1073   1.397       .  A
C1073      C1074   1.396       .  A
C1074      H1082   1.086       .  S
C1083      C1084   1.400       .  A
C1083      C1088   1.403       .  A
C1084      H1097   1.083       .  S
C1084      C1085   1.399       .  A
C1085      H1098   1.077       .  S
C1085      C1086   1.418       .  A
C1086      C1092   1.432       .  A
C1086      C1087   1.421       .  A
C1087      C1089   1.400       .  A
C1087      C1088   1.405       .  A
C1088      H1099   1.085       .  S
C1089      H1100   1.084       .  S
C1089      C1090   1.390       .  A
C1090      H1101   1.084       .  S
C1090      C1091   1.399       .  A
C1091      C1092   1.425       .  A
C1091      C1096   1.410       .  A
C1092      C1093   1.412       .  A
C1093      H1102   1.077       .  S
C1093      C1094   1.395       .  A
C1094      H1103   1.084       .  S
C1094      C1095   1.402       .  A
C1095      C1096   1.399       .  A
C1096      H1104   1.084       .  S
C1105      C1106   1.401       .  A
C1105      C1110   1.403       .  A
C1106      H1119   1.083       .  S
C1106      C1107   1.395   1_554  A
C1107      H1120   1.077       .  S
C1107      C1108   1.415       .  A
C1108      C1114   1.428       .  A
C1108      C1109   1.421       .  A
C1109      C1111   1.399       .  A
C1109      C1110   1.403   1_556  A
C1110      H1121   1.084       .  S
C1111      H1122   1.084       .  S
C1111      C1112   1.389       .  A
C1112      H1123   1.084       .  S
C1112      C1113   1.399       .  A
C1113      C1114   1.423       .  A
C1113      C1118   1.405       .  A
C1114      C1115   1.413       .  A
C1115      H1124   1.077       .  S
C1115      C1116   1.394       .  A
C1116      H1125   1.083       .  S
C1116      C1117   1.402       .  A
C1117      C1118   1.402       .  A
C1118      H1126   1.084       .  S
C1127      C1128   1.401       .  A
C1127      C1132   1.405       .  A
C1128      H1141   1.083       .  S
C1128      C1129   1.395       .  A
C1129      H1142   1.077       .  S
C1129      C1130   1.414       .  A
C1130      C1136   1.430       .  A
C1130      C1131   1.422       .  A
C1131      C1133   1.400       .  A
C1131      C1132   1.407       .  A
C1132      H1143   1.084       .  S
C1133      H1144   1.084       .  S
C1133      C1134   1.391       .  A
C1134      H1145   1.084       .  S
C1134      C1135   1.400       .  A
C1135      C1136   1.422       .  A
C1135      C1140   1.407       .  A
C1136      C1137   1.414       .  A
C1137      H1146   1.076       .  S
C1137      C1138   1.395       .  A
C1138      H1147   1.083       .  S
C1138      C1139   1.401       .  A
C1139      C1140   1.405       .  A
C1140      H1148   1.084       .  S
C1149      C1150   1.402   1_554  A
C1149      C1154   1.399       .  A
C1150      H1163   1.084       .  S
C1150      C1151   1.392   1_556  A
C1151      H1164   1.076   1_554  S
C1151      C1152   1.411       .  A
C1152      C1158   1.430       .  A
C1152      C1153   1.426       .  A
C1153      C1155   1.399       .  A
C1153      C1154   1.409       .  A
C1154      H1165   1.084       .  S
C1155      H1166   1.084       .  S
C1155      C1156   1.390       .  A
C1156      H1167   1.084       .  S
C1156      C1157   1.401       .  A
C1157      C1158   1.419       .  A
C1157      C1162   1.402       .  A
C1158      C1159   1.419       .  A
C1159      H1168   1.076       .  S
C1159      C1160   1.399       .  A
C1160      H1169   1.083       .  S
C1160      C1161   1.399       .  A
C1161      C1162   1.406       .  A
C1162      H1170   1.084       .  S
C1171      C1172   1.397       .  A
C1171      C1176   1.404       .  A
C1172      H1185   1.083       .  S
C1172      C1173   1.391       .  A
C1173      H1186   1.080       .  S
C1173      C1174   1.415       .  A
C1174      C1180   1.427       .  A
C1174      C1175   1.420       .  A
C1175      C1177   1.402       .  A
C1175      C1176   1.408       .  A
C1176      H1187   1.085       .  S
C1177      H1188   1.084       .  S
C1177      C1178   1.394       .  A
C1178      H1189   1.084       .  S
C1178      C1179   1.401       .  A
C1179      C1180   1.424       .  A
C1179      C1184   1.413       .  A
C1180      C1181   1.408       .  A
C1181      H1190   1.080       .  S
C1181      C1182   1.386       .  A
C1182      H1191   1.083       .  S
C1182      C1183   1.404       .  A
C1183      C1184   1.404       .  A
C1184      H1192   1.085       .  S
C1193      C1194   1.401       .  A
C1193      C1198   1.405       .  A
C1194      H1207   1.083       .  S
C1194      C1195   1.400       .  A
C1195      H1208   1.077       .  S
C1195      C1196   1.417       .  A
C1196      C1202   1.432       .  A
C1196      C1197   1.421       .  A
C1197      C1199   1.400       .  A
C1197      C1198   1.404       .  A
C1198      H1209   1.084       .  S
C1199      H1210   1.084       .  S
C1199      C1200   1.389       .  A
C1200      H1211   1.084       .  S
C1200      C1201   1.399       .  A
C1201      C1202   1.423       .  A
C1201      C1206   1.406       .  A
C1202      C1203   1.414       .  A
C1203      H1212   1.077       .  S
C1203      C1204   1.398       .  A
C1204      H1213   1.083       .  S
C1204      C1205   1.403       .  A
C1205      C1206   1.404       .  A
C1206      H1214   1.084       .  S
C1215      C1216   1.403       .  A
C1215      C1220   1.404       .  A
C1216      H1229   1.083       .  S
C1216      C1217   1.398       .  A
C1217      H1230   1.077       .  S
C1217      C1218   1.414       .  A
C1218      C1224   1.433       .  A
C1218      C1219   1.423       .  A
C1219      C1221   1.399       .  A
C1219      C1220   1.407       .  A
C1220      H1231   1.084       .  S
C1221      H1232   1.084       .  S
C1221      C1222   1.389       .  A
C1222      H1233   1.084       .  S
C1222      C1223   1.400       .  A
C1223      C1224   1.421       .  A
C1223      C1228   1.404       .  A
C1224      C1225   1.417       .  A
C1225      H1234   1.077       .  S
C1225      C1226   1.401       .  A
C1226      H1235   1.083       .  S
C1226      C1227   1.401       .  A
C1227      C1228   1.405       .  A
C1228      H1236   1.085       .  S
C1237      C1238   1.406       .  A
C1237      C1242   1.402       .  A
C1238      H1251   1.083       .  S
C1238      C1239   1.393       .  A
C1239      H1252   1.077       .  S
C1239      C1240   1.409       .  A
C1240      C1246   1.432       .  A
C1240      C1241   1.426       .  A
C1241      C1243   1.399       .  A
C1241      C1242   1.412       .  A
C1242      H1253   1.084       .  S
C1243      H1254   1.084       .  S
C1243      C1244   1.391       .  A
C1244      H1255   1.084       .  S
C1244      C1245   1.401       .  A
C1245      C1246   1.418       .  A
C1245      C1250   1.404       .  A
C1246      C1247   1.419       .  A
C1247      H1256   1.077       .  S
C1247      C1248   1.402       .  A
C1248      H1257   1.083       .  S
C1248      C1249   1.400       .  A
C1249      C1250   1.407       .  A
C1250      H1258   1.084       .  S
C1259      C1260   1.398       .  A
C1259      C1264   1.405       .  A
C1260      H1273   1.083       .  S
C1260      C1261   1.396       .  A
C1261      H1274   1.077       .  S
C1261      C1262   1.417       .  A
C1262      C1268   1.428       .  A
C1262      C1263   1.419       .  A
C1263      C1265   1.402       .  A
C1263      C1264   1.405       .  A
C1264      H1275   1.084       .  S
C1265      H1276   1.084       .  S
C1265      C1266   1.393       .  A
C1266      H1277   1.084       .  S
C1266      C1267   1.400       .  A
C1267      C1268   1.425       .  A
C1267      C1272   1.413       .  A
C1268      C1269   1.408       .  A
C1269      H1278   1.077       .  S
C1269      C1270   1.388       .  A
C1270      H1279   1.084       .  S
C1270      C1271   1.405       .  A
C1271      C1272   1.401       .  A
C1272      H1280   1.084       .  S
C1281      C1282   1.403       .  A
C1281      C1286   1.403       .  A
C1282      H1295   1.083       .  S
C1282      C1283   1.397       .  A
C1283      H1296   1.077       .  S
C1283      C1284   1.415       .  A
C1284      C1290   1.431       .  A
C1284      C1285   1.422       .  A
C1285      C1287   1.400       .  A
C1285      C1286   1.406       .  A
C1286      H1297   1.084       .  S
C1287      H1298   1.084       .  S
C1287      C1288   1.390       .  A
C1288      H1299   1.084       .  S
C1288      C1289   1.400       .  A
C1289      C1290   1.422       .  A
C1289      C1294   1.406       .  A
C1290      C1291   1.414       .  A
C1291      H1300   1.077       .  S
C1291      C1292   1.396       .  A
C1292      H1301   1.083       .  S
C1292      C1293   1.402       .  A
C1293      C1294   1.404       .  A
C1294      H1302   1.084       .  S
C1303      C1304   1.400       .  A
C1303      C1308   1.403       .  A
C1304      H1317   1.083       .  S
C1304      C1305   1.395       .  A
C1305      H1318   1.077       .  S
C1305      C1306   1.415       .  A
C1306      C1312   1.430       .  A
C1306      C1307   1.422       .  A
C1307      C1309   1.400       .  A
C1307      C1308   1.406       .  A
C1308      H1319   1.084       .  S
C1309      H1320   1.084       .  S
C1309      C1310   1.391       .  A
C1310      H1321   1.084       .  S
C1310      C1311   1.400       .  A
C1311      C1312   1.422       .  A
C1311      C1316   1.407       .  A
C1312      C1313   1.414       .  A
C1313      H1322   1.077       .  S
C1313      C1314   1.395       .  A
C1314      H1323   1.083       .  S
C1314      C1315   1.402       .  A
C1315      C1316   1.404       .  A
C1316      H1324   1.084       .  S
C1325      C1326   1.403       .  A
C1325      C1330   1.403       .  A
C1326      H1339   1.083       .  S
C1326      C1327   1.398       .  A
C1327      H1340   1.077       .  S
C1327      C1328   1.414       .  A
C1328      C1334   1.433       .  A
C1328      C1329   1.423       .  A
C1329      C1331   1.399       .  A
C1329      C1330   1.407       .  A
C1330      H1341   1.084       .  S
C1331      H1342   1.084       .  S
C1331      C1332   1.390       .  A
C1332      H1343   1.084       .  S
C1332      C1333   1.401       .  A
C1333      C1334   1.421       .  A
C1333      C1338   1.404       .  A
C1334      C1335   1.418       .  A
C1335      H1344   1.077       .  S
C1335      C1336   1.402       .  A
C1336      H1345   1.083       .  S
C1336      C1337   1.401       .  A
C1337      C1338   1.406       .  A
C1338      H1346   1.084       .  S
C1347      C1348   1.399       .  A
C1347      C1352   1.404       .  A
C1348      H1361   1.083       .  S
C1348      C1349   1.397       .  A
C1349      H1362   1.077       .  S
C1349      C1350   1.416       .  A
C1350      C1356   1.430       .  A
C1350      C1351   1.421       .  A
C1351      C1353   1.401       .  A
C1351      C1352   1.405       .  A
C1352      H1363   1.085       .  S
C1353      H1364   1.084       .  S
C1353      C1354   1.391       .  A
C1354      H1365   1.084       .  S
C1354      C1355   1.399       .  A
C1355      C1356   1.424       .  A
C1355      C1360   1.408       .  A
C1356      C1357   1.412       .  A
C1357      H1366   1.077       .  S
C1357      C1358   1.393       .  A
C1358      H1367   1.083       .  S
C1358      C1359   1.403       .  A
C1359      C1360   1.402       .  A
C1360      H1368   1.084       .  S
