geometry optimzed in LAMMPS
_audit_creation_date              2020-12-01 
_audit_creation_method            'lammps2cif' 
_symmetry_space_group_name_H-M    'P1' 
_symmetry_Int_Tables_number       1 
_symmetry_cell_setting            triclinic 
loop_ 
_symmetry_equiv_pos_as_xyz 
  x,y,z 
_cell_length_a                    32.7538396 
_cell_length_b                    32.727924144494146 
_cell_length_c                    32.720284956136645 
_cell_angle_alpha                 89.24920139699523 
_cell_angle_beta                  90.23666781228005 
_cell_angle_gamma                 90.72720086777007 
loop_ 
_atom_site_label 
_atom_site_type_symbol 
_atom_site_fract_x 
_atom_site_fract_y 
_atom_site_fract_z 
_atom_site_charge 
O1          O  0.66859818  0.28209992  0.03402303    -0.72200
O2          O  0.67630768  0.39818149  0.03456608    -0.72500
O3          O  0.61464789  0.34283884  0.03419363    -0.72300
O4          O  0.73061701  0.33644665  0.03477975    -0.72300
O5          O  0.73092109  0.34327404  0.96892335    -0.72300
O6          O  0.61464654  0.33908795  0.96810942    -0.72300
O7          O  0.67113409  0.39917350  0.96834313    -0.72300
O8          O  0.67474931  0.28306056  0.96837411    -0.72400
V9          V  0.67260780  0.34005097  0.03318431     1.35200
V10         V  0.67282856  0.34114489  0.96963486     1.35200
C11         C  0.67170175  0.26244234  0.00120306     0.77000
C12         C  0.67362561  0.41847368  0.00147690     0.77000
C13         C  0.59468090  0.34074537  0.00110457     0.76900
C14         C  0.75077596  0.33883831  0.00193032     0.76900
O15         O  0.28085768  0.33422194  0.96987153    -0.72200
O16         O  0.39707901  0.33256353  0.97058569    -0.72500
O17         O  0.33671113  0.27517429  0.96784068    -0.72300
O18         O  0.34046680  0.39102202  0.97213966    -0.72300
O19         O  0.34062810  0.38797176  0.03848654    -0.72300
O20         O  0.33686277  0.27151732  0.03375736    -0.72300
O21         O  0.39691363  0.32884854  0.03683099    -0.72300
O22         O  0.28071844  0.33178956  0.03597927    -0.72400
V23         V  0.33889360  0.33307676  0.97141816     1.35200
V24         V  0.33880044  0.32991313  0.03501870     1.35200
C25         C  0.26083143  0.33446231  0.00284525     0.77000
C26         C  0.41690301  0.33127247  0.00388609     0.77000
C27         C  0.33562134  0.25320170  0.99986051     0.76900
C28         C  0.34072499  0.40926858  0.00592460     0.76900
O29         O  0.72780377  0.67435255  0.03808093    -0.72200
O30         O  0.61181943  0.67004870  0.04197333    -0.72500
O31         O  0.67117434  0.61391023  0.03909689    -0.72300
O32         O  0.66884242  0.73029550  0.04057551    -0.72300
O33         O  0.66678777  0.73163998  0.97448764    -0.72300
O34         O  0.66770492  0.61576122  0.97278114    -0.72300
O35         O  0.60953951  0.67260405  0.97563668    -0.72300
O36         O  0.72579196  0.67441465  0.97226931    -0.72400
V37         V  0.66983730  0.67214999  0.03867821     1.35200
V38         V  0.66756296  0.67363777  0.97507475     1.35200
C39         C  0.74703519  0.67460633  0.00462389     0.77000
C40         C  0.59090507  0.67083645  0.00940668     0.77000
C41         C  0.66962869  0.59508264  0.00555376     0.76900
C42         C  0.66738333  0.75098842  0.00765973     0.76900
O43         O  0.33809898  0.72192700  0.97018823    -0.72200
O44         O  0.33600998  0.60597846  0.97162484    -0.72500
O45         O  0.27874376  0.66460604  0.97012838    -0.72300
O46         O  0.39507522  0.66380539  0.97218868    -0.72300
O47         O  0.39397926  0.66466566  0.03856594    -0.72300
O48         O  0.27801041  0.66326287  0.03641468    -0.72300
O49         O  0.33611389  0.60578513  0.03800681    -0.72300
O50         O  0.33605670  0.72224513  0.03650112    -0.72400
V51         V  0.33692668  0.66400563  0.97232961     1.35200
V52         V  0.33603223  0.66396500  0.03608731     1.35200
C53         C  0.33720792  0.74191150  0.00293316     0.77000
C54         C  0.33632744  0.58608554  0.00498284     0.77000
C55         C  0.25848616  0.66434613  0.00301642     0.76900
C56         C  0.41428107  0.66454845  0.00581798     0.76900
O57         O  0.71794951  0.96430839  0.67341974    -0.72200
O58         O  0.60175870  0.96509908  0.67649243    -0.72500
O59         O  0.65773479  0.96143237  0.61711004    -0.72300
O60         O  0.66202843  0.96777589  0.73282218    -0.72300
O61         O  0.66092143  0.03395146  0.72869186    -0.72300
O62         O  0.66094798  0.02760211  0.61262033    -0.72300
O63         O  0.60296547  0.03124519  0.67022089    -0.72300
O64         O  0.71896321  0.03072267  0.67069752    -0.72400
V65         V  0.65988264  0.96593961  0.67490730     1.35200
V66         V  0.66094340  0.02960421  0.67067737     1.35200
C67         C  0.73815608  0.99747547  0.67182589     0.77000
C68         C  0.58256654  0.99829875  0.67309362     0.77000
C69         C  0.65890163  0.99341006  0.59505585     0.76900
C70         C  0.66179902  0.00181892  0.75061609     0.76900
O71         O  0.32838607  0.03581310  0.71982652    -0.72200
O72         O  0.32927293  0.03666256  0.60338114    -0.72500
O73         O  0.27053179  0.03683565  0.66140388    -0.72300
O74         O  0.38680619  0.03554248  0.66246048    -0.72300
O75         O  0.38507073  0.96920484  0.66338003    -0.72300
O76         O  0.26903641  0.97053686  0.66109312    -0.72300
O77         O  0.32793359  0.97026065  0.60392518    -0.72300
O78         O  0.32619574  0.96947430  0.72001136    -0.72400
V79         V  0.32867304  0.03495056  0.66166780     1.35200
V80         V  0.32709062  0.97119320  0.66200820     1.35200
C81         C  0.32731569  0.00242807  0.73973307     0.77000
C82         C  0.32892636  0.00353622  0.58385796     0.77000
C83         C  0.24991787  0.00385046  0.66176437     0.76900
C84         C  0.40575064  0.00209515  0.66375882     0.76900
O85         O  0.27224484  0.02834850  0.32663761    -0.72200
O86         O  0.38862057  0.03670175  0.32996996    -0.72500
O87         O  0.33119340  0.03282519  0.26986402    -0.72300
O88         O  0.32944380  0.03294494  0.38621679    -0.72300
O89         O  0.33052204  0.96659464  0.38730531    -0.72300
O90         O  0.33775883  0.96708086  0.27083335    -0.72300
O91         O  0.39189589  0.97072401  0.33261869    -0.72300
O92         O  0.27633038  0.96245133  0.32465714    -0.72400
V93         V  0.33044198  0.03145278  0.32812266     1.35200
V94         V  0.33405226  0.96798566  0.32891171     1.35200
C95         C  0.25435042  0.99389700  0.32412927     0.77000
C96         C  0.41023810  0.00494774  0.33286707     0.77000
C97         C  0.33476161  0.99998191  0.25030722     0.76900
C98         C  0.32969216  0.99989624  0.40661893     0.76900
O99         O  0.72669162  0.02674032  0.34239721    -0.72200
O100        O  0.61080407  0.03526178  0.34203006    -0.72500
O101        O  0.66817057  0.02734251  0.40001755    -0.72300
O102        O  0.66924301  0.03482123  0.28399428    -0.72300
O103        O  0.66500102  0.96860208  0.28072923    -0.72300
O104        O  0.66071901  0.96146891  0.39667696    -0.72300
O105        O  0.60532734  0.96945439  0.33668694    -0.72300
O106        O  0.72102692  0.96062320  0.34067143    -0.72400
V107        V  0.66866778  0.02976652  0.34201128     1.35200
V108        V  0.66321171  0.96631756  0.33875398     1.35200
C109        C  0.74365477  0.99222502  0.34167805     0.77000
C110        C  0.58820966  0.00373576  0.33947615     0.77000
C111        C  0.66332375  0.99326562  0.41811443     0.76900
C112        C  0.66731798  0.00291031  0.26265601     0.76900
O113        O  0.03341803  0.72838468  0.66993450    -0.72200
O114        O  0.03539411  0.61222123  0.66742693    -0.72500
O115        O  0.03368928  0.67210044  0.61081274    -0.72300
O116        O  0.03521413  0.66867361  0.72687493    -0.72300
O117        O  0.96891625  0.66991630  0.72735045    -0.72300
O118        O  0.96773999  0.66612461  0.61133406    -0.72300
O119        O  0.96926424  0.61032122  0.67149095    -0.72300
O120        O  0.96714052  0.72630448  0.66720492    -0.72400
V121        V  0.03317341  0.67030922  0.66882356     1.35200
V122        V  0.96952469  0.66829450  0.66935311     1.35200
C123        C  0.99989399  0.74711407  0.66871622     0.77000
C124        C  0.00255256  0.59146558  0.66871767     0.77000
C125        C  0.00053776  0.66816607  0.59116815     0.76900
C126        C  0.00229840  0.66949878  0.74688095     0.76900
O127        O  0.03645583  0.33914254  0.71687434    -0.72200
O128        O  0.02909958  0.33362965  0.60101178    -0.72500
O129        O  0.03406431  0.39424243  0.65609078    -0.72300
O130        O  0.03158601  0.27798607  0.66170006    -0.72300
O131        O  0.96592498  0.27874691  0.66812535    -0.72300
O132        O  0.96789391  0.39483966  0.65833149    -0.72300
O133        O  0.96314492  0.33175245  0.60491230    -0.72300
O134        O  0.97054076  0.34107405  0.72066672    -0.72400
V135        V  0.03152435  0.33621036  0.65898239     1.35200
V136        V  0.96811594  0.33667853  0.66279345     1.35200
C137        C  0.00479810  0.34190709  0.73864816     0.77000
C138        C  0.99492377  0.33050088  0.58309367     0.77000
C139        C  0.00146516  0.41445212  0.65731479     0.76900
C140        C  0.99832486  0.25829279  0.66584362     0.76900
O141        O  0.97023998  0.65729044  0.27593180    -0.72200
O142        O  0.96878808  0.65556543  0.39206756    -0.72500
O143        O  0.96894615  0.71447205  0.33335073    -0.72300
O144        O  0.97004074  0.59832620  0.33387217    -0.72300
O145        O  0.03626228  0.59967666  0.33506112    -0.72300
O146        O  0.03509330  0.71617546  0.33484250    -0.72300
O147        O  0.03467173  0.65782421  0.39343615    -0.72300
O148        O  0.03654191  0.65885924  0.27708979    -0.72400
V149        V  0.97082008  0.65640587  0.33395531     1.35200
V150        V  0.03440755  0.65796243  0.33517210     1.35200
C151        C  0.00363231  0.65909115  0.25673942     0.77000
C152        C  0.00144025  0.65697050  0.41291596     0.77000
C153        C  0.00176922  0.73527204  0.33324778     0.76900
C154        C  0.00328202  0.57910179  0.33381180     0.76900
O155        O  0.96661816  0.26565795  0.32552067    -0.72200
O156        O  0.96704777  0.38179310  0.32692040    -0.72500
O157        O  0.96847560  0.32547932  0.26784009    -0.72300
O158        O  0.96490016  0.32168380  0.38386007    -0.72300
O159        O  0.03095662  0.32371001  0.38648272    -0.72300
O160        O  0.03470510  0.32479221  0.27009203    -0.72300
O161        O  0.03332754  0.38206405  0.32801679    -0.72300
O162        O  0.03231805  0.26605016  0.32834525    -0.72400
V163        V  0.96803250  0.32367205  0.32597573     1.35200
V164        V  0.03156835  0.32407992  0.32817430     1.35200
C165        C  0.99920221  0.24565284  0.32751898     0.77000
C166        C  0.00035867  0.40174365  0.32782120     0.77000
C167        C  0.00218859  0.32590510  0.24913263     0.76900
C168        C  0.99716311  0.32249591  0.40515107     0.76900
O169        O  0.00560246  0.31144066  0.93449881    -0.72200
O170        O  0.00665015  0.30455046  0.05037488    -0.72500
O171        O  0.94804261  0.30677240  0.99273266    -0.72300
O172        O  0.06407179  0.30912311  0.99249011    -0.72300
O173        O  0.06379910  0.37530311  0.99690385    -0.72300
O174        O  0.94755326  0.37311480  0.99431773    -0.72300
O175        O  0.00435434  0.37062386  0.05348315    -0.72300
O176        O  0.00679936  0.37769892  0.93728823    -0.72400
V177        V  0.00606965  0.30929160  0.99247995     1.35200
V178        V  0.00564092  0.37293457  0.99536251     1.35200
C179        C  0.00651318  0.34564522  0.91609218     0.77000
C180        C  0.00531036  0.33635545  0.07180477     0.77000
C181        C  0.92804605  0.33951534  0.99398178     0.76900
C182        C  0.08369165  0.34247227  0.99550218     0.76900
O183        O  0.00053844  0.63806642  0.06007999    -0.72200
O184        O  0.00381505  0.63862864  0.94430306    -0.72500
O185        O  0.06007568  0.63707567  0.00402088    -0.72300
O186        O  0.94400366  0.63959104  0.00049821    -0.72300
O187        O  0.94621742  0.70590654  0.00331285    -0.72300
O188        O  0.06241869  0.70332021  0.99996461    -0.72300
O189        O  0.00214096  0.70482926  0.94359022    -0.72300
O190        O  0.00662694  0.70413620  0.05991191    -0.72400
V191        V  0.00211209  0.63964192  0.00220104     1.35200
V192        V  0.00428650  0.70333388  0.00171815     1.35200
C193        C  0.00414883  0.67081806  0.07987373     0.77000
C194        C  0.00286722  0.67174053  0.92404557     0.77000
C195        C  0.08108228  0.66972800  0.00203692     0.76900
C196        C  0.92537591  0.67314707  0.00185514     0.76900
O197        O  0.00077296  0.04686397  0.36428974    -0.72200
O198        O  0.00204273  0.93097733  0.36075157    -0.72500
O199        O  0.05924364  0.99037209  0.35881163    -0.72300
O200        O  0.94336217  0.98717239  0.36620679    -0.72300
O201        O  0.93884102  0.99096385  0.30016717    -0.72300
O202        O  0.05489684  0.99220248  0.29257181    -0.72300
O203        O  0.99690302  0.93343704  0.29453519    -0.72300
O204        O  0.99689651  0.04945618  0.29795063    -0.72400
V205        V  0.00126305  0.98891799  0.36121627     1.35200
V206        V  0.99696161  0.99147131  0.29758501     1.35200
C207        C  0.99871868  0.06781374  0.33165796     0.77000
C208        C  0.99965559  0.91248272  0.32713530     0.77000
C209        C  0.07684932  0.99134170  0.32447339     0.76900
C210        C  0.92118111  0.98877763  0.33449290     0.76900
O211        O  0.99585179  0.94407610  0.70409174    -0.72200
O212        O  0.99514098  0.06024435  0.70394537    -0.72500
O213        O  0.93700953  0.00155460  0.70458123    -0.72300
O214        O  0.05347508  0.00319689  0.70272850    -0.72300
O215        O  0.05167848  0.00381404  0.63644516    -0.72300
O216        O  0.93584894  0.00115875  0.63873562    -0.72300
O217        O  0.99306429  0.06095574  0.63756834    -0.72300
O218        O  0.99413032  0.94468404  0.63790718    -0.72400
V219        V  0.99526018  0.00222209  0.70259680     1.35200
V220        V  0.99373442  0.00272341  0.63896540     1.35200
C221        C  0.99551602  0.92443435  0.67105740     0.77000
C222        C  0.99408290  0.08037684  0.67076401     0.77000
C223        C  0.91622642  0.00105804  0.67186186     0.76900
C224        C  0.07246272  0.00373413  0.66908923     0.76900
O225        O  0.63337591  0.00953855  0.06436422    -0.72200
O226        O  0.63262254  0.00498568  0.94837440    -0.72500
O227        O  0.63184628  0.94872153  0.00934755    -0.72300
O228        O  0.63392157  0.06505508  0.00329992    -0.72300
O229        O  0.70016785  0.06457752  0.00720320    -0.72300
O230        O  0.69802891  0.94843679  0.00548505    -0.72300
O231        O  0.69879728  0.00770894  0.94815243    -0.72300
O232        O  0.69899982  0.00460096  0.06455376    -0.72400
V233        V  0.63419610  0.00699102  0.00637401     1.35200
V234        V  0.69776930  0.00643327  0.00635959     1.35200
C235        C  0.66637891  0.00717686  0.08463123     0.77000
C236        C  0.66559147  0.00603341  0.92832889     0.77000
C237        C  0.66464197  0.92876870  0.00754602     0.76900
C238        C  0.66742326  0.08456003  0.00481813     0.76900
O239        O  0.36898197  0.94071497  0.99341307    -0.72200
O240        O  0.36484386  0.05688261  0.99354556    -0.72500
O241        O  0.36946691  0.99813296  0.05169685    -0.72300
O242        O  0.36434884  0.99969445  0.93550085    -0.72300
O243        O  0.29822803  0.99534939  0.93802985    -0.72300
O244        O  0.30319255  0.99578667  0.05408416    -0.72300
O245        O  0.29856767  0.05371810  0.99525763    -0.72300
O246        O  0.30292007  0.93763789  0.99726145    -0.72400
V247        V  0.36563726  0.99877606  0.99358189     1.35200
V248        V  0.30202744  0.99568531  0.99606684     1.35200
C249        C  0.33662502  0.91929441  0.99571210     0.77000
C250        C  0.33101667  0.07506664  0.99435581     0.77000
C251        C  0.33709881  0.99683647  0.07265757     0.76900
C252        C  0.33044757  0.99777089  0.91692776     0.76900
C253        C  0.03359258  0.13469429  0.34396083    -0.02300
C254        C  0.99831501  0.11280308  0.33260084     0.07400
C255        C  0.96293203  0.13375085  0.32101387    -0.02400
C256        C  0.96266696  0.17681932  0.31998921    -0.02400
C257        C  0.99892215  0.19966945  0.32942033     0.07500
C258        C  0.03445738  0.17773895  0.34154098    -0.02600
Br259      Br  0.08549995  0.20467866  0.35565884    -0.01200
Br260      Br  0.08105443  0.10515050  0.36270950    -0.01200
Br261      Br  0.91165204  0.20246459  0.30519196    -0.01200
Br262      Br  0.91401433  0.10274581  0.30786064    -0.01200
C263        C  0.02872720  0.36066696  0.14085669    -0.02300
C264        C  0.00479745  0.33345702  0.11720479     0.07400
C265        C  0.98041109  0.30338207  0.13723507    -0.02400
C266        C  0.97999555  0.30063961  0.18026989    -0.02400
C267        C  0.00350031  0.32813419  0.20381509     0.07500
C268        C  0.02780903  0.35819145  0.18390235    -0.02600
Br269      Br  0.05856959  0.39753402  0.21549225    -0.01200
Br270      Br  0.06453522  0.40042010  0.11472966    -0.01200
Br271      Br  0.94831758  0.25785857  0.20683467    -0.01200
Br272      Br  0.94580039  0.26669912  0.10625340    -0.01200
C273        C  0.02769698  0.51025135  0.35866285    -0.02300
C274        C  0.00322996  0.53365347  0.33173040     0.07400
C275        C  0.97810714  0.51328596  0.30295795    -0.02400
C276        C  0.97747431  0.47021571  0.30130673    -0.02400
C277        C  0.00101381  0.44701306  0.32914703     0.07500
C278        C  0.02576263  0.46723543  0.35811269    -0.02600
Br279      Br  0.05494961  0.43609640  0.39928295    -0.01200
Br280      Br  0.06326291  0.53646551  0.39750730    -0.01200
Br281      Br  0.94604685  0.44318541  0.25923053    -0.01200
Br282      Br  0.94615209  0.54414242  0.26384245    -0.01200
C283        C  0.96986014  0.84557395  0.34945622    -0.02300
C284        C  0.99931913  0.86734474  0.32651222     0.07400
C285        C  0.02887070  0.84591310  0.30442979    -0.02400
C286        C  0.02937225  0.80278007  0.30598318    -0.02400
C287        C  0.00104428  0.78080220  0.33080208     0.07500
C288        C  0.97124845  0.80271632  0.35241922    -0.02600
Br289      Br  0.93319180  0.77512792  0.38827855    -0.01200
Br290      Br  0.92596463  0.87457770  0.37517978    -0.01200
Br291      Br  0.06765257  0.77438474  0.27205705    -0.01200
Br292      Br  0.06952385  0.87570186  0.27300223    -0.01200
C293        C  0.98289996  0.69733816  0.14854183    -0.02300
C294        C  0.00560710  0.66955185  0.12525947     0.07400
C295        C  0.02872348  0.63916456  0.14561840    -0.02400
C296        C  0.02764437  0.63540647  0.18852095    -0.02400
C297        C  0.00412527  0.66243464  0.21159733     0.07500
C298        C  0.98185274  0.69347937  0.19149213    -0.02600
Br299      Br  0.95045836  0.73161432  0.22280679    -0.01200
Br300      Br  0.95232694  0.74046027  0.12217724    -0.01200
Br301      Br  0.05668421  0.59155988  0.21544735    -0.01200
Br302      Br  0.06419552  0.60394085  0.11523840    -0.01200
C303        C  0.02260027  0.30187685  0.51769050    -0.02300
C304        C  0.99280856  0.32529163  0.53774069     0.07400
C305        C  0.96197526  0.34412274  0.51391547    -0.02400
C306        C  0.96391961  0.34392344  0.47083478    -0.02400
C307        C  0.99515179  0.32249074  0.45075169     0.07500
C308        C  0.02372087  0.30043830  0.47459553    -0.02600
Br309      Br  0.06333931  0.26602971  0.44880472    -0.01200
Br310      Br  0.05975076  0.26809210  0.54903187    -0.01200
Br311      Br  0.92473386  0.37576388  0.43993785    -0.01200
Br312      Br  0.91606081  0.36990484  0.53926469    -0.01200
C313        C  0.03710362  0.32470080  0.84984255    -0.02300
C314        C  0.00789743  0.34762535  0.87082019     0.07400
C315        C  0.97990253  0.37154315  0.84837575    -0.02400
C316        C  0.97952043  0.37054226  0.80523553    -0.02400
C317        C  0.00748863  0.34582018  0.78404879     0.07500
C318        C  0.03745146  0.32438614  0.80681418    -0.02600
Br319      Br  0.07940080  0.29383981  0.78020668    -0.01200
Br320      Br  0.07779540  0.29428705  0.88013956    -0.01200
Br321      Br  0.94186279  0.40521816  0.77566458    -0.01200
Br322      Br  0.94075144  0.40451354  0.87664683    -0.01200
C323        C  0.96298122  0.19051311  0.65179855    -0.02300
C324        C  0.99712579  0.21249256  0.66759669     0.07400
C325        C  0.02988425  0.19010042  0.68508753    -0.02400
C326        C  0.02822429  0.14703027  0.68709936    -0.02400
C327        C  0.99455117  0.12561633  0.67077172     0.07500
C328        C  0.96169129  0.14744033  0.65389785    -0.02600
Br329      Br  0.91358890  0.11810816  0.63586996    -0.01200
Br330      Br  0.91847851  0.21816314  0.62448915    -0.01200
Br331      Br  0.07257315  0.11705706  0.71201367    -0.01200
Br332      Br  0.07761793  0.21716139  0.70699502    -0.01200
C333        C  0.03202273  0.64419945  0.52578839    -0.02300
C334        C  0.00047484  0.66494910  0.54579500     0.07400
C335        C  0.96834541  0.68148139  0.52222236    -0.02400
C336        C  0.96674739  0.67539192  0.47964191    -0.02400
C337        C  0.00048523  0.65845561  0.45885058     0.07500
C338        C  0.03372066  0.64368915  0.48272753    -0.02600
Br339      Br  0.08212361  0.62181289  0.45812693    -0.01200
Br340      Br  0.07138508  0.61282838  0.55701858    -0.01200
Br341      Br  0.91691814  0.69013442  0.45162873    -0.01200
Br342      Br  0.92761943  0.71520612  0.54741333    -0.01200
C343        C  0.97645728  0.48363901  0.63454287    -0.02300
C344        C  0.00270313  0.45988345  0.65927517     0.07400
C345        C  0.02927533  0.47976226  0.68714051    -0.02400
C346        C  0.02918499  0.52272178  0.69038747    -0.02400
C347        C  0.00276680  0.54628233  0.66570539     0.07500
C348        C  0.97659591  0.52653715  0.63756847    -0.02600
Br349      Br  0.94219106  0.55821583  0.60123854    -0.01200
Br350      Br  0.94145708  0.45797844  0.59477230    -0.01200
Br351      Br  0.06357698  0.54901810  0.73061416    -0.01200
Br352      Br  0.06434674  0.44840160  0.72299812    -0.01200
C353        C  0.97544290  0.85530090  0.70059806    -0.02300
C354        C  0.99708376  0.87891680  0.67100947     0.07400
C355        C  0.02036753  0.85863811  0.64119334    -0.02400
C356        C  0.02082337  0.81559885  0.64019240    -0.02400
C357        C  0.99899735  0.79230626  0.66950005     0.07500
C358        C  0.97668905  0.81226021  0.69993624    -0.02600
Br359      Br  0.94911891  0.78053441  0.74202937    -0.01200
Br360      Br  0.94261431  0.88105932  0.74161953    -0.01200
Br361      Br  0.05013727  0.78845374  0.59741644    -0.01200
Br362      Br  0.05402109  0.88917843  0.60283574    -0.01200
C363        C  0.97916082  0.64181350  0.85744155    -0.02300
C364        C  0.00255258  0.67152111  0.87861155     0.07400
C365        C  0.02606058  0.70048498  0.85603673    -0.02400
C366        C  0.02582099  0.69991414  0.81296756    -0.02400
C367        C  0.00274066  0.67003481  0.79207136     0.07500
C368        C  0.97970220  0.64084290  0.81443762    -0.02600
Br369      Br  0.95035040  0.59799216  0.78619104    -0.01200
Br370      Br  0.94453018  0.60315658  0.88664773    -0.01200
Br371      Br  0.05607980  0.74123520  0.78259751    -0.01200
Br372      Br  0.06048920  0.74000535  0.88352761    -0.01200
C373        C  0.80869519  0.96596293  0.31144573    -0.02300
C374        C  0.78893848  0.98917458  0.34141604     0.07400
C375        C  0.81268688  0.01063106  0.37034417    -0.02400
C376        C  0.85572649  0.01062223  0.36816459    -0.02400
C377        C  0.87566951  0.98826428  0.33744533     0.07500
C378        C  0.85173997  0.96544343  0.30947998    -0.02600
Br379      Br  0.87743904  0.93187930  0.26902524    -0.01200
Br380      Br  0.77694686  0.93562630  0.27191623    -0.01200
Br381      Br  0.88666596  0.04345281  0.40634234    -0.01200
Br382      Br  0.78622677  0.03835420  0.41461854    -0.01200
C383        C  0.70195725  0.01910284  0.15292490    -0.02300
C384        C  0.66625683  0.00724881  0.13059172     0.07400
C385        C  0.63071271  0.99541631  0.15294341    -0.02400
C386        C  0.63144259  0.99398323  0.19602417    -0.02400
C387        C  0.66687200  0.00550261  0.21755004     0.07500
C388        C  0.70170350  0.01883948  0.19607036    -0.02600
Br389      Br  0.74963773  0.03620415  0.22621383    -0.01200
Br390      Br  0.75174920  0.03682847  0.12601779    -0.01200
Br391      Br  0.58324821  0.97723755  0.22620338    -0.01200
Br392      Br  0.57999554  0.98002689  0.12631013    -0.01200
C393        C  0.47657763  0.97773283  0.36127497    -0.02300
C394        C  0.45583290  0.00712983  0.33694477     0.07400
C395        C  0.47919824  0.03785359  0.31648130    -0.02400
C396        C  0.52232801  0.03716378  0.31759988    -0.02400
C397        C  0.54281144  0.00644304  0.34009891     0.07500
C398        C  0.51961569  0.97776566  0.36316351    -0.02600
Br399      Br  0.54661217  0.93998995  0.40003925    -0.01200
Br400      Br  0.44666174  0.93831751  0.39455611    -0.01200
Br401      Br  0.55301949  0.07760960  0.28640080    -0.01200
Br402      Br  0.45315834  0.08088772  0.28565637    -0.01200
C403        C  0.14367956  0.02014215  0.29853314    -0.02300
C404        C  0.12207224  0.99058157  0.32193622     0.07400
C405        C  0.14381170  0.95949872  0.34246885    -0.02400
C406        C  0.18677763  0.95839553  0.34030560    -0.02400
C407        C  0.20883062  0.99073139  0.32083785     0.07500
C408        C  0.18678519  0.02060921  0.29844112    -0.02600
Br409      Br  0.21514461  0.06032171  0.26430690    -0.01200
Br410      Br  0.11444108  0.06093981  0.26728697    -0.01200
Br411      Br  0.21397875  0.91092095  0.36247136    -0.01200
Br412      Br  0.11462453  0.91732757  0.37285262    -0.01200
C413        C  0.35484616  0.03142582  0.18175034    -0.02300
C414        C  0.33517511  0.99972742  0.20456607     0.07400
C415        C  0.31613578  0.96720197  0.18318091    -0.02400
C416        C  0.31860235  0.96538879  0.14023803    -0.02400
C417        C  0.33839950  0.99684521  0.11788301     0.07500
C418        C  0.35694828  0.02958003  0.13874506    -0.02600
Br419      Br  0.38469297  0.07256838  0.10821187    -0.01200
Br420      Br  0.37864887  0.07831262  0.20822845    -0.01200
Br421      Br  0.29674156  0.91841884  0.11194502    -0.01200
Br422      Br  0.28276909  0.92694836  0.21162335    -0.01200
C423        C  0.29600987  0.98557882  0.51727335    -0.02300
C424        C  0.32904789  0.00340945  0.53857268     0.07400
C425        C  0.36218892  0.02041975  0.51647051    -0.02400
C426        C  0.36273174  0.01852554  0.47337883    -0.02400
C427        C  0.32966030  0.00057962  0.45202910     0.07500
C428        C  0.29610201  0.98470706  0.47422785    -0.02600
Br429      Br  0.24880992  0.96441213  0.44582878    -0.01200
Br430      Br  0.24946047  0.96420710  0.54710092    -0.01200
Br431      Br  0.40952864  0.03927428  0.44365349    -0.01200
Br432      Br  0.40740998  0.04535091  0.54523889    -0.01200
C433        C  0.30147049  0.02459305  0.85054602    -0.02300
C434        C  0.32874683  0.99849514  0.87158324     0.07400
C435        C  0.35525399  0.97372081  0.84903258    -0.02400
C436        C  0.35577457  0.97629603  0.80606322    -0.02400
C437        C  0.32794268  0.00164024  0.78502337     0.07500
C438        C  0.30053815  0.02554402  0.80743385    -0.02600
Br439      Br  0.26043822  0.05844928  0.77926581    -0.01200
Br440      Br  0.26643508  0.06059841  0.88041327    -0.01200
Br441      Br  0.39673054  0.94698501  0.77629352    -0.01200
Br442      Br  0.38916407  0.93401244  0.87660247    -0.01200
C443        C  0.13882283  0.03070302  0.64023393    -0.02300
C444        C  0.11789136  0.00417500  0.66770370     0.00200
C445        C  0.14060602  0.97762448  0.69323231    -0.02400
C446        C  0.18366219  0.97813935  0.69180745    -0.02400
C447        C  0.20453419  0.00406783  0.66373366     0.07500
C448        C  0.18181681  0.03025436  0.63789343    -0.02600
Br449      Br  0.20921962  0.06444281  0.59770440    -0.01200
Br450      Br  0.10898170  0.06920860  0.60664719    -0.01200
Br451      Br  0.21385291  0.94463768  0.73021104    -0.01200
Br452      Br  0.11303304  0.93851132  0.72866781    -0.01200
C453        C  0.68285812  0.96303435  0.52912286    -0.02300
C454        C  0.65798324  0.99106515  0.54978171     0.07400
C455        C  0.63250862  0.01738524  0.52688131    -0.02400
C456        C  0.63371802  0.01743802  0.48386231    -0.02400
C457        C  0.66022744  0.99101749  0.46327156     0.07500
C458        C  0.68383123  0.96293049  0.48604061    -0.02600
Br459      Br  0.71910974  0.92534297  0.45848763    -0.01200
Br460      Br  0.71747706  0.92589139  0.55935661    -0.01200
Br461      Br  0.59699218  0.05216523  0.45320501    -0.01200
Br462      Br  0.59384893  0.05177522  0.55418110    -0.01200
C463        C  0.47328371  0.97625886  0.63962179    -0.02300
C464        C  0.45101756  0.00131221  0.66612691     0.07400
C465        C  0.47216959  0.02493741  0.69546045    -0.02400
C466        C  0.51515562  0.02380847  0.69791217    -0.02400
C467        C  0.53732748  0.99866007  0.67146401     0.07500
C468        C  0.51619331  0.97477642  0.64243555    -0.02600
Br469      Br  0.54609274  0.94154567  0.60476684    -0.01200
Br470      Br  0.44539309  0.94556263  0.59764518    -0.01200
Br471      Br  0.54351209  0.05535119  0.73896637    -0.01200
Br472      Br  0.44236627  0.05717881  0.73409429    -0.01200
C473        C  0.80493484  0.98673203  0.70709634    -0.02300
C474        C  0.78325088  0.99758375  0.67157091     0.07400
C475        C  0.80450008  0.00960669  0.63614953    -0.02400
C476        C  0.84758043  0.01065725  0.63590995    -0.02400
C477        C  0.87020057  0.00024064  0.67194146     0.07500
C478        C  0.84800784  0.98856751  0.70775567    -0.02600
Br479      Br  0.87482959  0.97433720  0.75866838    -0.01200
Br480      Br  0.77496529  0.96993092  0.75539643    -0.01200
Br481      Br  0.87363602  0.02762138  0.58528178    -0.01200
Br482      Br  0.77397163  0.02373763  0.58731480    -0.01200
C483        C  0.63706756  0.97703579  0.81928103    -0.02300
C484        C  0.66244498  0.00365257  0.79601514     0.07400
C485        C  0.68905851  0.03103665  0.81640348    -0.02400
C486        C  0.69112781  0.03095421  0.85951016    -0.02400
C487        C  0.66501319  0.00497883  0.88281913     0.07500
C488        C  0.63789855  0.97810525  0.86232362    -0.02600
Br489      Br  0.60276424  0.94084470  0.89276685    -0.01200
Br490      Br  0.59960474  0.93975080  0.79247343    -0.01200
Br491      Br  0.72969226  0.06724836  0.88604747    -0.01200
Br492      Br  0.72390547  0.06822346  0.78561399    -0.01200
C493        C  0.36574654  0.81003113  0.02457748    -0.02300
C494        C  0.33717230  0.78722857  0.00153322     0.07400
C495        C  0.30920071  0.80784910  0.97589981    -0.02400
C496        C  0.30971166  0.85085266  0.97332118    -0.02400
C497        C  0.33785234  0.87385520  0.99683016     0.07500
C498        C  0.36617743  0.85313482  0.02220513    -0.02600
Br499      Br  0.40500273  0.88335480  0.05505050    -0.01200
Br500      Br  0.40550074  0.78228527  0.05838458    -0.01200
Br501      Br  0.27298645  0.87781073  0.93555980    -0.01200
Br502      Br  0.26862251  0.77731171  0.94543650    -0.01200
C503        C  0.14921349  0.69290861  0.02949861    -0.02300
C504        C  0.12641411  0.66854723  0.00213785     0.07400
C505        C  0.14709153  0.64272990  0.97509783    -0.02400
C506        C  0.19011012  0.64092287  0.97569486    -0.02400
C507        C  0.21304650  0.66575889  0.00262489     0.07500
C508        C  0.19226894  0.69198676  0.02936575    -0.02600
Br509      Br  0.22242262  0.72840894  0.06482279    -0.01200
Br510      Br  0.12153761  0.72612035  0.06890586    -0.01200
Br511      Br  0.21714739  0.60255189  0.94089033    -0.01200
Br512      Br  0.11662579  0.61092708  0.93575437    -0.01200
C513        C  0.52366921  0.70051043  0.98926304    -0.02300
C514        C  0.54569436  0.67002384  0.01041261     0.07400
C515        C  0.52434187  0.63832171  0.03119528    -0.02400
C516        C  0.48134471  0.63617224  0.02920844    -0.02400
C517        C  0.45944013  0.66603415  0.00699986     0.07500
C518        C  0.48074544  0.69832558  0.98722981    -0.02600
Br519      Br  0.45112033  0.74070451  0.95869796    -0.01200
Br520      Br  0.55216871  0.74713561  0.96571640    -0.01200
Br521      Br  0.45259839  0.59091646  0.05502647    -0.01200
Br522      Br  0.55376931  0.59713962  0.06167294    -0.01200
C523        C  0.68452396  0.81975717  0.97538028    -0.02300
C524        C  0.66635978  0.79667116  0.00771221     0.07400
C525        C  0.64702409  0.81777152  0.03978733    -0.02400
C526        C  0.64715937  0.86088355  0.04004320    -0.02400
C527        C  0.66429707  0.88348109  0.00731517     0.07500
C528        C  0.68240900  0.86275076  0.97474260    -0.02600
Br529      Br  0.70327428  0.89338499  0.92824214    -0.01200
Br530      Br  0.71490184  0.79369148  0.93262773    -0.01200
Br531      Br  0.62613866  0.88906358  0.08669888    -0.01200
Br532      Br  0.61826910  0.78860768  0.08290086    -0.01200
C533        C  0.81505333  0.68543268  0.96753816    -0.02300
C534        C  0.79314655  0.67469058  0.00387687     0.07400
C535        C  0.81616686  0.66374732  0.03946461    -0.02400
C536        C  0.85919616  0.66246083  0.03813487    -0.02400
C537        C  0.88021380  0.67392265  0.00241577     0.07500
C538        C  0.85821954  0.68581603  0.96739349    -0.02600
Br539      Br  0.88785610  0.70207063  0.91871817    -0.01200
Br540      Br  0.78768092  0.70041984  0.91711848    -0.01200
Br541      Br  0.89010061  0.64522644  0.08569661    -0.01200
Br542      Br  0.79079003  0.64987135  0.09128156    -0.01200
C543        C  0.36790827  0.52040200  0.98331060    -0.02300
C544        C  0.33745337  0.54084068  0.00531681     0.07400
C545        C  0.30820310  0.51788324  0.02769291    -0.02400
C546        C  0.30968215  0.47484749  0.02851716    -0.02400
C547        C  0.34043566  0.45446793  0.00693835     0.07500
C548        C  0.36957466  0.47740670  0.98440657    -0.02600
Br549      Br  0.41303798  0.45001234  0.95636971    -0.01200
Br550      Br  0.40821892  0.55110012  0.95228801    -0.01200
Br551      Br  0.26782529  0.44386073  0.05707929    -0.01200
Br552      Br  0.26407697  0.54523525  0.05462333    -0.01200
C553        C  0.19084237  0.31866091  0.03262046    -0.02300
C554        C  0.21534608  0.33838606  0.00242044     0.07400
C555        C  0.19588236  0.36237762  0.97172474    -0.02400
C556        C  0.15288010  0.36420287  0.96973972    -0.02400
C557        C  0.12882300  0.34260345  0.99851644     0.07500
C558        C  0.14791501  0.32071246  0.03046310    -0.02600
Br559      Br  0.11494090  0.29481238  0.07257842    -0.01200
Br560      Br  0.21482223  0.28804468  0.07724647    -0.01200
Br561      Br  0.12679388  0.39549258  0.92674295    -0.01200
Br562      Br  0.22744182  0.39542605  0.93359260    -0.01200
C563        C  0.31207611  0.14075526  0.02744782    -0.02300
C564        C  0.32970828  0.12029999  0.99449389     0.07400
C565        C  0.34685596  0.14308129  0.96198412    -0.02400
C566        C  0.34736501  0.18621134  0.96273216    -0.02400
C567        C  0.33276613  0.20728756  0.99753075     0.07500
C568        C  0.31459333  0.18377479  0.02971031    -0.02600
Br569      Br  0.29127299  0.20916423  0.07700122    -0.01200
Br570      Br  0.28444210  0.10952275  0.06988512    -0.01200
Br571      Br  0.36811566  0.21472934  0.91491186    -0.01200
Br572      Br  0.36805189  0.11474952  0.91520173    -0.01200
C573        C  0.63945138  0.48479006  0.98452562    -0.02300
C574        C  0.67292022  0.46369704  0.00155470     0.07400
C575        C  0.70570256  0.48600353  0.01865939    -0.02400
C576        C  0.70428562  0.52888519  0.02056301    -0.02400
C577        C  0.67049560  0.54994597  0.00440156     0.07500
C578        C  0.63841017  0.52781968  0.98563710    -0.02600
Br579      Br  0.59244824  0.55630749  0.96225968    -0.01200
Br580      Br  0.59439607  0.45480703  0.96058536    -0.01200
Br581      Br  0.75004957  0.55884684  0.04291282    -0.01200
Br582      Br  0.75425403  0.45822685  0.03620472    -0.01200
C583        C  0.48366488  0.36082358  0.02971532    -0.02300
C584        C  0.46238763  0.33324296  0.00410987     0.07400
C585        C  0.48477471  0.30849027  0.97755772    -0.02400
C586        C  0.52766444  0.31165982  0.97583448    -0.02400
C587        C  0.54910997  0.33924969  0.00127163     0.07500
C588        C  0.52670968  0.36406840  0.02805759    -0.02600
Br589      Br  0.55441117  0.40476407  0.06074814    -0.01200
Br590      Br  0.45406326  0.39548376  0.06632652    -0.01200
Br591      Br  0.55645689  0.27630765  0.93944534    -0.01200
Br592      Br  0.45710942  0.26754494  0.94555896    -0.01200
C593        C  0.85953331  0.31900625  0.96593137    -0.02300
C594        C  0.88292120  0.33843534  0.99638396     0.07400
C595        C  0.86327309  0.35508802  0.03045676    -0.02400
C596        C  0.82037207  0.35299769  0.03383071    -0.02400
C597        C  0.79638533  0.33643981  0.00166439     0.07500
C598        C  0.81654965  0.31785851  0.96852324    -0.02600
Br599      Br  0.78611265  0.28704339  0.92830135    -0.01200
Br600      Br  0.88646190  0.29507215  0.91974023    -0.01200
Br601      Br  0.79591756  0.37153383  0.08380741    -0.01200
Br602      Br  0.89548074  0.37978241  0.07345941    -0.01200
C603        C  0.65758929  0.15104587  0.96785483    -0.02300
C604        C  0.66833753  0.12971881  0.00378101     0.07400
C605        C  0.68059603  0.15146152  0.03854696    -0.02400
C606        C  0.68308921  0.19447506  0.03740729    -0.02400
C607        C  0.67163943  0.21657647  0.00147218     0.07500
C608        C  0.65956073  0.19412749  0.96633193    -0.02600
Br609      Br  0.64546787  0.22070974  0.91518101    -0.01200
Br610      Br  0.64007334  0.12080308  0.92043542    -0.01200
Br611      Br  0.70515140  0.22156015  0.08506870    -0.01200
Br612      Br  0.69172765  0.12203899  0.08876759    -0.01200
loop_ 
_geom_bond_atom_site_label_1 
_geom_bond_atom_site_label_2 
_geom_bond_distance 
_geom_bond_site_symmetry_2 
_ccdc_geom_bond_type 
O1            V9   1.899       .  S
O1           C11   1.264       .  A
O2            V9   1.906       .  S
O2           C12   1.266       .  A
O3            V9   1.902       .  S
O3           C13   1.265       .  A
O4            V9   1.906       .  S
O4           C14   1.265       .  A
O5           V10   1.903       .  S
O5           C14   1.266   1_556  A
O6           V10   1.906       .  S
O6           C13   1.267   1_556  A
O7           V10   1.901       .  S
O7           C12   1.264   1_556  A
O8           V10   1.904       .  S
O8           C11   1.265   1_556  A
V9           V10   2.079   1_554  T
C11         C607   1.501       .  S
C12         C574   1.481       .  S
C13         C587   1.493       .  S
C14         C597   1.497       .  S
O15          V23   1.902       .  S
O15          C25   1.265   1_556  A
O16          V23   1.906       .  S
O16          C26   1.267   1_556  A
O17          V23   1.901       .  S
O17          C27   1.263       .  A
O18          V23   1.897       .  S
O18          C28   1.263   1_556  A
O19          V24   1.905       .  S
O19          C28   1.265       .  A
O20          V24   1.912       .  S
O20          C27   1.268   1_554  A
O21          V24   1.905       .  S
O21          C26   1.265       .  A
O22          V24   1.905       .  S
O22          C25   1.265       .  A
V23          V24   2.082   1_556  T
C25         C554   1.497       .  S
C26         C584   1.490       .  S
C27         C567   1.507       .  S
C28         C547   1.480       .  S
O29          V37   1.899       .  S
O29          C39   1.265       .  A
O30          V37   1.904       .  S
O30          C40   1.265       .  A
O31          V37   1.907       .  S
O31          C41   1.266       .  A
O32          V37   1.906       .  S
O32          C42   1.266       .  A
O33          V38   1.899       .  S
O33          C42   1.264   1_556  A
O34          V38   1.897       .  S
O34          C41   1.262   1_556  A
O35          V38   1.901       .  S
O35          C40   1.265   1_556  A
O36          V38   1.910       .  S
O36          C39   1.264   1_556  A
V37          V38   2.082   1_554  T
C39         C534   1.511       .  S
C40         C514   1.481       .  S
C41         C577   1.479       .  S
C42         C524   1.496       .  S
O43          V51   1.896       .  S
O43          C53   1.263   1_556  A
O44          V51   1.899       .  S
O44          C54   1.264   1_556  A
O45          V51   1.907       .  S
O45          C55   1.266   1_556  A
O46          V51   1.905       .  S
O46          C56   1.266   1_556  A
O47          V52   1.899       .  S
O47          C56   1.263       .  A
O48          V52   1.900       .  S
O48          C55   1.264       .  A
O49          V52   1.904       .  S
O49          C54   1.266       .  A
O50          V52   1.908       .  S
O50          C53   1.266       .  A
V51          V52   2.086   1_556  T
C53         C494   1.483       .  S
C54         C544   1.482       .  S
C55         C507   1.490       .  S
C56         C517   1.480       .  S
O57          V65   1.904       .  S
O57          C67   1.265       .  A
O58          V65   1.905       .  S
O58          C68   1.266       .  A
O59          V65   1.900       .  S
O59          C69   1.264       .  A
O60          V65   1.898       .  S
O60          C70   1.264   1_565  A
O61          V66   1.905       .  S
O61          C70   1.266       .  A
O62          V66   1.902       .  S
O62          C69   1.266   1_545  A
O63          V66   1.900       .  S
O63          C68   1.264   1_545  A
O64          V66   1.900       .  S
O64          C67   1.264   1_545  A
V65          V66   2.086   1_565  T
C67         C474   1.477       .  S
C68         C467   1.483       .  S
C69         C454   1.485       .  S
C70         C484   1.488       .  S
O71          V79   1.904       .  S
O71          C81   1.265       .  A
O72          V79   1.907       .  S
O72          C82   1.265       .  A
O73          V79   1.906       .  S
O73          C83   1.266       .  A
O74          V79   1.904       .  S
O74          C84   1.265       .  A
O75          V80   1.901       .  S
O75          C84   1.265   1_565  A
O76          V80   1.901       .  S
O76          C83   1.265   1_565  A
O77          V80   1.901       .  S
O77          C82   1.264   1_565  A
O78          V80   1.898       .  S
O78          C81   1.264   1_565  A
V79          V80   2.087   1_545  T
C81         C437   1.482       .  S
C82         C424   1.482       .  S
C83         C447   1.488       .  S
C84         C464   1.485       .  S
O85          V93   1.908       .  S
O85          C95   1.268   1_545  A
O86          V93   1.912       .  S
O86          C96   1.267       .  A
O87          V93   1.906       .  S
O87          C97   1.265   1_545  A
O88          V93   1.903       .  S
O88          C98   1.264   1_545  A
O89          V94   1.915       .  S
O89          C98   1.268       .  A
O90          V94   1.905       .  S
O90          C97   1.266       .  A
O91          V94   1.899       .  S
O91          C96   1.264   1_565  A
O92          V94   1.902       .  S
O92          C95   1.263       .  A
V93          V94   2.082   1_545  T
C95         C407   1.497       .  S
C96         C394   1.500       .  S
C97         C414   1.497       .  S
C98         C427   1.486   1_565  S
O99         V107   1.904       .  S
O99         C109   1.266   1_545  A
O100        V107   1.906       .  S
O100        C110   1.266       .  A
O101        V107   1.899       .  S
O101        C111   1.264   1_545  A
O102        V107   1.904       .  S
O102        C112   1.265       .  A
O103        V108   1.900       .  S
O103        C112   1.264   1_565  A
O104        V108   1.902       .  S
O104        C111   1.264       .  A
O105        V108   1.901       .  S
O105        C110   1.265   1_565  A
O106        V108   1.906       .  S
O106        C109   1.265       .  A
V107        V108   2.086   1_545  T
C109        C374   1.488       .  S
C110        C397   1.491       .  S
C111        C457   1.482       .  S
C112        C387   1.477       .  S
O113        V121   1.901       .  S
O113        C123   1.265   1_455  A
O114        V121   1.905       .  S
O114        C124   1.265       .  A
O115        V121   1.898       .  S
O115        C125   1.266       .  A
O116        V121   1.900       .  S
O116        C126   1.264       .  A
O117        V122   1.899       .  S
O117        C126   1.264   1_655  A
O118        V122   1.901       .  S
O118        C125   1.264   1_655  A
O119        V122   1.898       .  S
O119        C124   1.264   1_655  A
O120        V122   1.902       .  S
O120        C123   1.265       .  A
V121        V122   2.085   1_455  T
C123        C357   1.480       .  S
C124        C347   1.483       .  S
C125        C334   1.490       .  S
C126        C367   1.479       .  S
O127        V135   1.904       .  S
O127        C137   1.265       .  A
O128        V135   1.901       .  S
O128        C138   1.265   1_455  A
O129        V135   1.901       .  S
O129        C139   1.264       .  A
O130        V135   1.906       .  S
O130        C140   1.266   1_455  A
O131        V136   1.902       .  S
O131        C140   1.265       .  A
O132        V136   1.907       .  S
O132        C139   1.267   1_655  A
O133        V136   1.909       .  S
O133        C138   1.266       .  A
O134        V136   1.902       .  S
O134        C137   1.265   1_655  A
V135        V136   2.081   1_455  T
C137        C317   1.495       .  S
C138        C304   1.497       .  S
C139        C344   1.489       .  S
C140        C324   1.499       .  S
O141        V149   1.898       .  S
O141        C151   1.264   1_655  A
O142        V149   1.903       .  S
O142        C152   1.267   1_655  A
O143        V149   1.902       .  S
O143        C153   1.265   1_655  A
O144        V149   1.901       .  S
O144        C154   1.264   1_655  A
O145        V150   1.909       .  S
O145        C154   1.266       .  A
O146        V150   1.905       .  S
O146        C153   1.265       .  A
O147        V150   1.906       .  S
O147        C152   1.263       .  A
O148        V150   1.902       .  S
O148        C151   1.265       .  A
V149        V150   2.083   1_655  T
C151        C297   1.480       .  S
C152        C337   1.505       .  S
C153        C287   1.492       .  S
C154        C274   1.490       .  S
O155        V163   1.899       .  S
O155        C165   1.260       .  A
O156        V163   1.904       .  S
O156        C166   1.265   1_655  A
O157        V163   1.902       .  S
O157        C167   1.265   1_655  A
O158        V163   1.897       .  S
O158        C168   1.263       .  A
O159        V164   1.908       .  S
O159        C168   1.266   1_455  A
O160        V164   1.903       .  S
O160        C167   1.265       .  A
O161        V164   1.898       .  S
O161        C166   1.264       .  A
O162        V164   1.900       .  S
O162        C165   1.267   1_455  A
V163        V164   2.082   1_655  T
C165        C257   1.505       .  S
C166        C277   1.483       .  S
C167        C267   1.484       .  S
C168        C307   1.494       .  S
O169        V177   1.898       .  S
O169        C179   1.264       .  A
O170        V177   1.899   1_554  S
O170        C180   1.264       .  A
O171        V177   1.901   1_655  S
O171        C181   1.264       .  A
O172        V177   1.900       .  S
O172        C182   1.264       .  A
O173        V178   1.906       .  S
O173        C182   1.265       .  A
O174        V178   1.903   1_655  S
O174        C181   1.265       .  A
O175        V178   1.903   1_554  S
O175        C180   1.265       .  A
O176        V178   1.905       .  S
O176        C179   1.265       .  A
V177        V178   2.086       .  T
C179        C314   1.483       .  S
C180        C264   1.487       .  S
C181        C594   1.480       .  S
C182        C557   1.481       .  S
O183        V191   1.895       .  S
O183        C193   1.264       .  A
O184        V191   1.896   1_556  S
O184        C194   1.264       .  A
O185        V191   1.902       .  S
O185        C195   1.265       .  A
O186        V191   1.904   1_655  S
O186        C196   1.264       .  A
O187        V192   1.906   1_655  S
O187        C196   1.265       .  A
O188        V192   1.905   1_556  S
O188        C195   1.266   1_556  A
O189        V192   1.903   1_556  S
O189        C194   1.265       .  A
O190        V192   1.906       .  S
O190        C193   1.266       .  A
V191        V192   2.085       .  T
C193        C294   1.486       .  S
C194        C364   1.487       .  S
C195        C504   1.486       .  S
C196        C537   1.480       .  S
O197        V205   1.901   1_545  S
O197        C207   1.263   1_455  A
O198        V205   1.897       .  S
O198        C208   1.264   1_455  A
O199        V205   1.901       .  S
O199        C209   1.265       .  A
O200        V205   1.904   1_655  S
O200        C210   1.265       .  A
O201        V206   1.906       .  S
O201        C210   1.266       .  A
O202        V206   1.905   1_455  S
O202        C209   1.265       .  A
O203        V206   1.903       .  S
O203        C208   1.264       .  A
O204        V206   1.898   1_545  S
O204        C207   1.264       .  A
V205        V206   2.087   1_455  T
C207        C254   1.473       .  S
C208        C284   1.478       .  S
C209        C404   1.484       .  S
C210        C377   1.494       .  S
O211        V219   1.903   1_565  S
O211        C221   1.265       .  A
O212        V219   1.900       .  S
O212        C222   1.263       .  A
O213        V219   1.909       .  S
O213        C223   1.266       .  A
O214        V219   1.907   1_455  S
O214        C224   1.266       .  A
O215        V220   1.900   1_455  S
O215        C224   1.264       .  A
O216        V220   1.896       .  S
O216        C223   1.262       .  A
O217        V220   1.906       .  S
O217        C222   1.266       .  A
O218        V220   1.900   1_565  S
O218        C221   1.265       .  A
V219        V220   2.082       .  T
C221        C354   1.491       .  S
C222        C327   1.480       .  S
C223        C477   1.507       .  S
C224        C444   1.489       .  S
O225        V233   1.901       .  S
O225        C235   1.269       .  A
O226        V233   1.900   1_556  S
O226        C236   1.266       .  A
O227        V233   1.909   1_565  S
O227        C237   1.266       .  A
O228        V233   1.902       .  S
O228        C238   1.264       .  A
O229        V234   1.904       .  S
O229        C238   1.265       .  A
O230        V234   1.899   1_565  S
O230        C237   1.263       .  A
O231        V234   1.905   1_556  S
O231        C236   1.265       .  A
O232        V234   1.905       .  S
O232        C235   1.261       .  A
V233        V234   2.083       .  T
C235        C384   1.504       .  S
C236        C487   1.490       .  S
C237        C527   1.482       .  S
C238        C604   1.478       .  S
O239        V247   1.905       .  S
O239        C249   1.265       .  A
O240        V247   1.902   1_545  S
O240        C250   1.265       .  A
O241        V247   1.905   1_554  S
O241        C251   1.265       .  A
O242        V247   1.901       .  S
O242        C252   1.265       .  A
O243        V248   1.903       .  S
O243        C252   1.265       .  A
O244        V248   1.899   1_554  S
O244        C251   1.264       .  A
O245        V248   1.904   1_545  S
O245        C250   1.265       .  A
O246        V248   1.900       .  S
O246        C249   1.265       .  A
V247        V248   2.087       .  T
C249        C497   1.488       .  S
C250        C564   1.482       .  S
C251        C417   1.480       .  S
C252        C434   1.484       .  S
C253        C254   1.403   1_455  A
C253        C258   1.410       .  A
C253       Br260   1.935       .  S
C254        C255   1.402       .  A
C255        C256   1.410       .  A
C255       Br262   1.936       .  S
C256        C257   1.430       .  A
C256       Br261   1.936       .  S
C257        C258   1.427   1_655  A
C258       Br259   1.937       .  S
C263        C264   1.415       .  A
C263        C268   1.410       .  A
C263       Br270   1.934       .  S
C264        C265   1.416   1_455  A
C265        C266   1.410       .  A
C265       Br272   1.934       .  S
C266        C267   1.411   1_655  A
C266       Br271   1.932       .  S
C267        C268   1.412       .  A
C268       Br269   1.933       .  S
C273        C274   1.413       .  A
C273        C278   1.409       .  A
C273       Br280   1.923       .  S
C274        C275   1.416   1_455  A
C275        C276   1.411       .  A
C275       Br282   1.933       .  S
C276        C277   1.411   1_655  A
C276       Br281   1.933       .  S
C277        C278   1.411       .  A
C278       Br279   1.935       .  S
C283        C284   1.406       .  A
C283        C288   1.406       .  A
C283       Br290   1.934       .  S
C284        C285   1.410   1_655  A
C285        C286   1.412       .  A
C285       Br292   1.932       .  S
C286        C287   1.418       .  A
C286       Br291   1.933       .  S
C287        C288   1.416   1_455  A
C288       Br289   1.924       .  S
C293        C294   1.414   1_655  A
C293        C298   1.410       .  A
C293       Br300   1.933       .  S
C294        C295   1.416       .  A
C295        C296   1.408       .  A
C295       Br302   1.934       .  S
C296        C297   1.409       .  A
C296       Br301   1.933       .  S
C297        C298   1.412   1_455  A
C298       Br299   1.934       .  S
C303        C304   1.417   1_455  A
C303        C308   1.412       .  A
C303       Br310   1.936       .  S
C304        C305   1.416       .  A
C305        C306   1.411       .  A
C305       Br312   1.929       .  S
C306        C307   1.416       .  A
C306       Br311   1.937       .  S
C307        C308   1.415   1_655  A
C308       Br309   1.933       .  S
C313        C314   1.409       .  A
C313        C318   1.408       .  A
C313       Br320   1.936       .  S
C314        C315   1.411   1_455  A
C315        C316   1.412       .  A
C315       Br322   1.933       .  S
C316        C317   1.419   1_655  A
C316       Br321   1.935       .  S
C317        C318   1.417       .  A
C318       Br319   1.927       .  S
C323        C324   1.421       .  A
C323        C328   1.411       .  A
C323       Br330   1.935       .  S
C324        C325   1.421   1_655  A
C325        C326   1.411       .  A
C325       Br332   1.927       .  S
C326        C327   1.407   1_455  A
C326       Br331   1.935       .  S
C327        C328   1.406       .  A
C328       Br329   1.929       .  S
C333        C334   1.412       .  A
C333        C338   1.411       .  A
C333       Br340   1.938       .  S
C334        C335   1.411   1_455  A
C335        C336   1.411       .  A
C335       Br342   1.936       .  S
C336        C337   1.422   1_655  A
C336       Br341   1.932       .  S
C337        C338   1.423       .  A
C338       Br339   1.931       .  S
C343        C344   1.412   1_655  A
C343        C348   1.409       .  A
C343       Br350   1.925       .  S
C344        C345   1.417       .  A
C345        C346   1.411       .  A
C345       Br352   1.933       .  S
C346        C347   1.411       .  A
C346       Br351   1.933       .  S
C347        C348   1.412   1_455  A
C348       Br349   1.935       .  S
C353        C354   1.417       .  A
C353        C358   1.410       .  A
C353       Br360   1.932       .  S
C354        C355   1.418   1_655  A
C355        C356   1.410       .  A
C355       Br362   1.934       .  S
C356        C357   1.409   1_455  A
C356       Br361   1.933       .  S
C357        C358   1.410       .  A
C358       Br359   1.934       .  S
C363        C364   1.417   1_655  A
C363        C368   1.408       .  A
C363       Br370   1.934       .  S
C364        C365   1.416       .  A
C365        C366   1.410       .  A
C365       Br372   1.934       .  S
C366        C367   1.411       .  A
C366       Br371   1.933       .  S
C367        C368   1.409   1_455  A
C368       Br369   1.933       .  S
C373        C374   1.412       .  A
C373        C378   1.412       .  A
C373       Br380   1.933       .  S
C374        C375   1.411   1_565  A
C375        C376   1.412       .  A
C375       Br382   1.933       .  S
C376        C377   1.417   1_545  A
C376       Br381   1.934       .  S
C377        C378   1.417       .  A
C378       Br379   1.933       .  S
C383        C384   1.429       .  A
C383        C388   1.412       .  A
C383       Br390   1.935       .  S
C384        C385   1.424   1_545  A
C385        C386   1.410       .  A
C385       Br392   1.937       .  S
C386        C387   1.405   1_565  A
C386       Br391   1.935       .  S
C387        C388   1.404       .  A
C388       Br389   1.934       .  S
C393        C394   1.419   1_565  A
C393        C398   1.411       .  A
C393       Br400   1.936       .  S
C394        C395   1.419       .  A
C395        C396   1.413       .  A
C395       Br402   1.927       .  S
C396        C397   1.413       .  A
C396       Br401   1.935       .  S
C397        C398   1.413   1_545  A
C398       Br399   1.935       .  S
C403        C404   1.411   1_545  A
C403        C408   1.412       .  A
C403       Br410   1.932       .  S
C404        C405   1.411       .  A
C405        C406   1.410       .  A
C405       Br412   1.935       .  S
C406        C407   1.419       .  A
C406       Br411   1.932       .  S
C407        C408   1.418   1_565  A
C408       Br409   1.934       .  S
C413        C414   1.420   1_545  A
C413        C418   1.411       .  A
C413       Br420   1.927       .  S
C414        C415   1.418       .  A
C415        C416   1.410       .  A
C415       Br422   1.933       .  S
C416        C417   1.408       .  A
C416       Br421   1.933       .  S
C417        C418   1.408   1_565  A
C418       Br419   1.934       .  S
C423        C424   1.409   1_565  A
C423        C428   1.409       .  A
C423       Br430   1.932       .  S
C424        C425   1.411       .  A
C425        C426   1.412       .  A
C425       Br432   1.930       .  S
C426        C427   1.412       .  A
C426       Br431   1.930       .  S
C427        C428   1.410   1_545  A
C428       Br429   1.919       .  S
C433        C434   1.414   1_545  A
C433        C438   1.411       .  A
C433       Br440   1.932       .  S
C434        C435   1.412       .  A
C435        C436   1.408       .  A
C435       Br442   1.932       .  S
C436        C437   1.411   1_565  A
C436       Br441   1.933       .  S
C437        C438   1.412       .  A
C438       Br439   1.932       .  S
C443        C444   1.415       .  A
C443        C448   1.411       .  A
C443       Br450   1.933       .  S
C444        C445   1.414   1_545  A
C445        C446   1.411       .  A
C445       Br452   1.934       .  S
C446        C447   1.415   1_565  A
C446       Br451   1.934       .  S
C447        C448   1.412       .  A
C448       Br449   1.932       .  S
C453        C454   1.415       .  A
C453        C458   1.410       .  A
C453       Br460   1.933       .  S
C454        C455   1.413   1_565  A
C455        C456   1.408       .  A
C455       Br462   1.934       .  S
C456        C457   1.412   1_545  A
C456       Br461   1.934       .  S
C457        C458   1.412       .  A
C458       Br459   1.933       .  S
C463        C464   1.413   1_565  A
C463        C468   1.409       .  A
C463       Br470   1.932       .  S
C464        C465   1.414       .  A
C465        C466   1.411       .  A
C465       Br472   1.933       .  S
C466        C467   1.412   1_545  A
C466       Br471   1.932       .  S
C467        C468   1.412       .  A
C468       Br469   1.932       .  S
C473        C474   1.404       .  A
C473        C478   1.411       .  A
C473       Br480   1.934       .  S
C474        C475   1.404   1_565  A
C475        C476   1.411       .  A
C475       Br482   1.935       .  S
C476        C477   1.430       .  A
C476       Br481   1.938       .  S
C477        C478   1.427   1_545  A
C478       Br479   1.934       .  S
C483        C484   1.414   1_565  A
C483        C488   1.409       .  A
C483       Br490   1.935       .  S
C484        C485   1.414       .  A
C485        C486   1.412       .  A
C485       Br492   1.934       .  S
C486        C487   1.416       .  A
C486       Br491   1.934       .  S
C487        C488   1.415   1_545  A
C488       Br489   1.935       .  S
C493        C494   1.412       .  A
C493        C498   1.412       .  A
C493       Br500   1.933       .  S
C494        C495   1.412   1_554  A
C495        C496   1.409       .  A
C495       Br502   1.934       .  S
C496        C497   1.414       .  A
C496       Br501   1.933       .  S
C497        C498   1.416   1_556  A
C498       Br499   1.933       .  S
C503        C504   1.412       .  A
C503        C508   1.411       .  A
C503       Br510   1.933       .  S
C504        C505   1.412   1_554  A
C505        C506   1.411       .  A
C505       Br512   1.932       .  S
C506        C507   1.414   1_556  A
C506       Br511   1.932       .  S
C507        C508   1.416       .  A
C508       Br509   1.934       .  S
C513        C514   1.411   1_556  A
C513        C518   1.408       .  A
C513       Br520   1.932       .  S
C514        C515   1.412       .  A
C515        C516   1.410       .  A
C515       Br522   1.931       .  S
C516        C517   1.412       .  A
C516       Br521   1.932       .  S
C517        C518   1.410   1_554  A
C518       Br519   1.931       .  S
C523        C524   1.420   1_556  A
C523        C528   1.410       .  A
C523       Br530   1.934       .  S
C524        C525   1.420       .  A
C525        C526   1.411       .  A
C525       Br532   1.934       .  S
C526        C527   1.408       .  A
C526       Br531   1.928       .  S
C527        C528   1.408   1_554  A
C528       Br529   1.934       .  S
C533        C534   1.429   1_556  A
C533        C538   1.414       .  A
C533       Br540   1.935       .  S
C534        C535   1.429       .  A
C535        C536   1.411       .  A
C535       Br542   1.937       .  S
C536        C537   1.403       .  A
C536       Br541   1.935       .  S
C537        C538   1.404   1_554  A
C538       Br539   1.934       .  S
C543        C544   1.413   1_556  A
C543        C548   1.409       .  A
C543       Br550   1.932       .  S
C544        C545   1.411       .  A
C545        C546   1.410       .  A
C545       Br552   1.932       .  S
C546        C547   1.412       .  A
C546       Br551   1.932       .  S
C547        C548   1.411   1_554  A
C548       Br549   1.933       .  S
C553        C554   1.419       .  A
C553        C558   1.410       .  A
C553       Br560   1.930       .  S
C554        C555   1.421   1_554  A
C555        C556   1.412       .  A
C555       Br562   1.934       .  S
C556        C557   1.408       .  A
C556       Br561   1.932       .  S
C557        C558   1.408   1_556  A
C558       Br559   1.935       .  S
C563        C564   1.406   1_554  A
C563        C568   1.412       .  A
C563       Br570   1.934       .  S
C564        C565   1.406       .  A
C565        C566   1.412       .  A
C565       Br572   1.936       .  S
C566        C567   1.426       .  A
C566       Br571   1.933       .  S
C567        C568   1.424   1_556  A
C568       Br569   1.931       .  S
C573        C574   1.412   1_556  A
C573        C578   1.410       .  A
C573       Br580   1.931       .  S
C574        C575   1.409       .  A
C575        C576   1.407       .  A
C575       Br582   1.924       .  S
C576        C577   1.409       .  A
C576       Br581   1.928       .  S
C577        C578   1.412   1_554  A
C578       Br579   1.931       .  S
C583        C584   1.415       .  A
C583        C588   1.414       .  A
C583       Br590   1.933       .  S
C584        C585   1.410   1_554  A
C585        C586   1.409       .  A
C585       Br592   1.926       .  S
C586        C587   1.414   1_556  A
C586       Br591   1.928       .  S
C587        C588   1.416       .  A
C588       Br589   1.934       .  S
C593        C594   1.408       .  A
C593        C598   1.411       .  A
C593       Br600   1.933       .  S
C594        C595   1.409   1_556  A
C595        C596   1.411       .  A
C595       Br602   1.934       .  S
C596        C597   1.420       .  A
C596       Br601   1.932       .  S
C597        C598   1.420   1_554  A
C598       Br599   1.934       .  S
C603        C604   1.405   1_556  A
C603        C608   1.411       .  A
C603       Br610   1.933       .  S
C604        C605   1.404       .  A
C605        C606   1.409       .  A
C605       Br612   1.929       .  S
C606        C607   1.424       .  A
C606       Br611   1.937       .  S
C607        C608   1.425   1_554  A
C608       Br609   1.933       .  S
