geometry optimzed in LAMMPS
_audit_creation_date              2020-11-30 
_audit_creation_method            'lammps2cif' 
_symmetry_space_group_name_H-M    'P1' 
_symmetry_Int_Tables_number       1 
_symmetry_cell_setting            triclinic 
loop_ 
_symmetry_equiv_pos_as_xyz 
  x,y,z 
_cell_length_a                    34.13419112 
_cell_length_b                    33.490207378435706 
_cell_length_c                    31.637905161464232 
_cell_angle_alpha                 90.20961338203986 
_cell_angle_beta                  91.00646485064165 
_cell_angle_gamma                 89.18815698986964 
loop_ 
_atom_site_label 
_atom_site_type_symbol 
_atom_site_fract_x 
_atom_site_fract_y 
_atom_site_fract_z 
_atom_site_charge 
O1          O  0.04829725  0.96115350  0.21088902    -0.73200
O2          O  0.96623047  0.03922204  0.20982401    -0.73200
O3          O  0.04498128  0.04130366  0.21067133    -0.73200
O4          O  0.96932740  0.95899798  0.21031534    -0.73300
O5          O  0.96964406  0.95938712  0.28077210    -0.73200
O6          O  0.04629855  0.04280704  0.28095296    -0.73200
O7          O  0.96620769  0.03976263  0.28037470    -0.73200
O8          O  0.04930709  0.96137478  0.28137626    -0.73200
Ni9        Ni  0.00722557  0.00016514  0.20805652     1.25400
Ni10       Ni  0.00798674  0.00089778  0.28352484     1.25400
C11         C  0.06236891  0.94831903  0.24609074     0.89000
C12         C  0.95220441  0.05175980  0.24471890     0.89000
C13         C  0.05851106  0.05565699  0.24538725     0.89000
C14         C  0.95652508  0.94589784  0.24533736     0.89100
O15         O  0.19225029  0.32449527  0.24813045    -0.79600
O16         O  0.24803420  0.18645025  0.13989995    -0.64300
O17         O  0.23026108  0.25235296  0.23509496    -1.10900
C18         C  0.33613346  0.32608542  0.18009402     1.07300
O19         O  0.31178212  0.18526485  0.15097034    -0.77500
O20         O  0.34237393  0.22624838  0.21725284    -0.65100
Ni21       Ni  0.17817183  0.26952354  0.24855024     1.34900
C22         C  0.33268547  0.24236296  0.25202452     0.86000
O23         O  0.19913970  0.18054048  0.20562074    -0.78100
O24         O  0.16062285  0.21547960  0.25015353    -0.88300
C25         C  0.28200127  0.17551019  0.12889379     0.85600
O26         O  0.15703123  0.27592759  0.19285977    -0.66500
O27         O  0.34808289  0.29246644  0.16585474    -0.85800
C28         C  0.16880224  0.26431064  0.15707424     0.86400
C29         C  0.17005622  0.18350224  0.23058420     1.08000
H30         H  0.26593815  0.27086658  0.14631598     0.39800
O31         O  0.27535338  0.25735111  0.17155308    -1.08500
O32         O  0.30548677  0.26838241  0.25454354    -0.65100
Ni33       Ni  0.26672177  0.29214488  0.21799461     1.26300
O34         O  0.19998537  0.24405840  0.15242901    -0.65400
O35         O  0.30395150  0.33083436  0.19968273    -0.77700
C36         C  0.22001398  0.33677648  0.27147302     0.85800
O37         O  0.25484371  0.32527211  0.26491709    -0.64800
Ni38       Ni  0.32765674  0.23937045  0.16021252     1.27400
Ni39       Ni  0.23787111  0.21831615  0.18808967     1.26100
H40         H  0.24059227  0.23862014  0.25982208     0.40300
O41         O  0.67772106  0.18157514  0.25622888    -0.79600
O42         O  0.82026724  0.23757257  0.14460579    -0.64300
O43         O  0.74961782  0.21957676  0.23508305    -1.10900
C44         C  0.67924932  0.32638836  0.17339540     1.07300
O45         O  0.81981311  0.30307240  0.15202400    -0.77500
O46         O  0.77588471  0.33322987  0.21733331    -0.65100
Ni47       Ni  0.73200840  0.16601176  0.24527452     1.34900
C48         C  0.75637351  0.32607216  0.25032682     0.86000
O49         O  0.82282295  0.19083535  0.21268442    -0.78100
O50         O  0.78436614  0.14404232  0.23968050    -0.88300
C51         C  0.83375429  0.27148466  0.13523532     0.85600
O52         O  0.71967032  0.15211798  0.18726976    -0.66500
O53         O  0.71283914  0.33852518  0.16272571    -0.85800
C54         C  0.73925944  0.15860690  0.15404373     0.86400
C55         C  0.81784086  0.15677168  0.22904109     1.08000
H56         H  0.73560174  0.25451220  0.14289299     0.39800
O57         O  0.74742793  0.26451188  0.16937549    -1.08500
O58         O  0.73106922  0.29846514  0.25124467    -0.65100
Ni59       Ni  0.71133934  0.25673664  0.21405944     1.26300
O60         O  0.76507260  0.18575463  0.15296159    -0.65400
O61         O  0.67377126  0.29291876  0.19084368    -0.77700
C62         C  0.66375961  0.21417850  0.27118741     0.85800
O63         O  0.67668876  0.24747836  0.25935915    -0.64800
Ni64       Ni  0.76529093  0.31786879  0.15945401     1.27400
Ni65       Ni  0.78544175  0.22731978  0.18995529     1.26100
H66         H  0.76096114  0.22931146  0.26022398     0.40300
O67         O  0.83333914  0.68111012  0.17257990    -0.79600
O68         O  0.69575014  0.74263835  0.27246882    -0.64300
O69         O  0.76176031  0.72088376  0.18111618    -1.10900
C70         C  0.82934179  0.83400597  0.23337993     1.07300
O71         O  0.69050820  0.80640214  0.25541570    -0.77500
O72         O  0.73349402  0.83608696  0.18983042    -0.65100
Ni73       Ni  0.77885038  0.66739288  0.16980907     1.34900
C74         C  0.75256856  0.82634469  0.15702586     0.86000
O75         O  0.69219751  0.68866948  0.21037342    -0.78100
O76         O  0.72546478  0.64984394  0.16493952    -0.88300
C77         C  0.67994508  0.77662452  0.27729417     0.85600
O78         O  0.78244667  0.64669483  0.22639561    -0.66500
O79         O  0.79561400  0.84631465  0.24513695    -0.85800
C80         C  0.77133388  0.65966870  0.26210961     0.86400
C81         C  0.69434976  0.65912191  0.18478291     1.08000
H82         H  0.77710179  0.76398062  0.26849184     0.39800
O83         O  0.76408607  0.77095373  0.24211151    -1.08500
O84         O  0.77787927  0.79799952  0.15731874    -0.65100
Ni85       Ni  0.79935649  0.76005896  0.19802555     1.26300
O86         O  0.75397847  0.69336472  0.26619258    -0.65400
O87         O  0.83556484  0.79973719  0.21675027    -0.77700
C88         C  0.84799332  0.70973368  0.15220400     0.85800
O89         O  0.83421913  0.74494744  0.15494505    -0.64800
Ni90       Ni  0.74380616  0.82408069  0.24856064     1.27400
Ni91       Ni  0.72809683  0.72990024  0.22696682     1.26100
H92         H  0.74819102  0.73015113  0.15586832     0.40300
O93         O  0.31885261  0.82553615  0.15533383    -0.79600
O94         O  0.26776290  0.68075391  0.26121984    -0.64300
O95         O  0.28430272  0.75165947  0.17066701    -1.10900
C96         C  0.17790699  0.82185305  0.23335646     1.07300
O97         O  0.20493050  0.68026241  0.24532774    -0.77500
O98         O  0.16766533  0.72944365  0.19311366    -0.65100
Ni99       Ni  0.33529417  0.77046469  0.15838908     1.34900
C100        C  0.17855438  0.74037566  0.15696519     0.86000
O101        O  0.31486592  0.67915825  0.19605937    -0.78100
O102        O  0.35613832  0.71701131  0.15962539    -0.88300
C103        C  0.23440614  0.66515412  0.26446197     0.85600
O104        O  0.35355842  0.78008763  0.21473050    -0.66500
O105        O  0.17022799  0.78940696  0.25239179    -0.85800
C106        C  0.34445921  0.76507903  0.24987045     0.86400
C107        C  0.34565287  0.68372238  0.17492076     1.08000
H108        H  0.25009582  0.76761354  0.25964399     0.39800
O109        O  0.24006005  0.75410024  0.23476565    -1.08500
O110        O  0.20808193  0.76250977  0.15162980    -0.65100
Ni111      Ni  0.24547662  0.78888251  0.18846321     1.26300
O112        O  0.31680769  0.74009955  0.25328814    -0.65400
O113        O  0.20599689  0.82527088  0.20760092    -0.77700
C114        C  0.28763739  0.84045380  0.13917625     0.85800
O115        O  0.25491935  0.82355832  0.14295858    -0.64800
Ni116      Ni  0.18944966  0.73544593  0.24849472     1.27400
Ni117      Ni  0.27775613  0.71619139  0.21627412     1.26100
H118        H  0.27513741  0.73825316  0.14532827     0.40300
O119        O  0.26838236  0.97414395  0.99717551    -0.73200
O120        O  0.27538404  0.02845112  0.89277263    -0.73200
O121        O  0.27598230  0.95191147  0.91668449    -0.73200
O122        O  0.26808275  0.05063853  0.97413260    -0.73300
O123        O  0.33297044  0.05204600  0.98196155    -0.73200
O124        O  0.34101106  0.95160898  0.92453215    -0.73200
O125        O  0.34052101  0.02938292  0.90007063    -0.73200
O126        O  0.33321585  0.97503599  0.00569001    -0.73200
Ni127      Ni  0.26976229  0.00131361  0.94476271     1.25400
Ni128      Ni  0.33941389  0.00214440  0.95312644     1.25400
C129        C  0.29932533  0.96523004  0.01861790     0.89000
C130        C  0.30895750  0.03849589  0.87956628     0.89000
C131        C  0.30932285  0.93478537  0.91223478     0.89000
C132        C  0.29893740  0.06679361  0.98939552     0.89100
O133        O  0.97104752  0.31251920  0.99696258    -0.73200
O134        O  0.05255480  0.31146160  0.91391038    -0.73200
O135        O  0.97302310  0.31118873  0.91082834    -0.73200
O136        O  0.05034940  0.31339855  0.99997913    -0.73300
O137        O  0.05205944  0.24672411  0.00052738    -0.73200
O138        O  0.97517135  0.24480193  0.91189804    -0.73200
O139        O  0.05440482  0.24492267  0.91571862    -0.73200
O140        O  0.97309623  0.24615351  0.99735493    -0.73200
Ni141      Ni  0.01175139  0.31458847  0.95535822     1.25400
Ni142      Ni  0.01369106  0.24336837  0.95640962     1.25400
C143        C  0.95866903  0.27916207  0.01109073     0.89000
C144        C  0.06677664  0.27791627  0.90109848     0.89000
C145        C  0.96125655  0.27749114  0.89653841     0.89000
C146        C  0.06370837  0.28034283  0.01485625     0.89100
O147        O  0.69831825  0.02815657  0.91229000    -0.73200
O148        O  0.70558090  0.94716893  0.99874151    -0.73200
O149        O  0.70044673  0.02836255  0.99958207    -0.73200
O150        O  0.70413104  0.94718732  0.91183541    -0.73300
O151        O  0.76928078  0.95007127  0.91288422    -0.73200
O152        O  0.76547985  0.03228436  0.99857169    -0.73200
O153        O  0.77062181  0.95075492  0.99916837    -0.73200
O154        O  0.76344231  0.03131476  0.91241644    -0.73200
Ni155      Ni  0.69981789  0.98760082  0.95566485     1.25400
Ni156      Ni  0.76944953  0.99124008  0.95575331     1.25400
C157        C  0.72984857  0.04278546  0.89768079     0.89000
C158        C  0.73912548  0.93572562  0.01355233     0.89000
C159        C  0.73248844  0.04371062  0.01362686     0.89000
C160        C  0.73745679  0.93537778  0.89775030     0.89100
O161        O  0.04718014  0.73689735  0.92418983    -0.73200
O162        O  0.97333346  0.72922847  0.01119428    -0.73200
O163        O  0.05113958  0.73651340  0.00867155    -0.73200
O164        O  0.96939121  0.72936301  0.92608117    -0.73300
O165        O  0.97501007  0.66302991  0.92557382    -0.73200
O166        O  0.05868393  0.67027519  0.00866432    -0.73200
O167        O  0.97975950  0.66286951  0.01199242    -0.73200
O168        O  0.05362037  0.67051869  0.92265252    -0.73200
Ni169      Ni  0.00987948  0.73519422  0.96758953     1.25400
Ni170      Ni  0.01692929  0.66412032  0.96720948     1.25400
C171        C  0.06272426  0.70514462  0.90913646     0.89000
C172        C  0.96516684  0.69533673  0.02687912     0.89000
C173        C  0.06877258  0.70494637  0.02205486     0.89000
C174        C  0.95944585  0.69539453  0.91106942     0.89100
O175        O  0.32230060  0.77578872  0.79434622    -0.79600
O176        O  0.26475839  0.69698350  0.63346499    -0.64300
O177        O  0.28634866  0.77641654  0.71499133    -1.10900
C178        C  0.17346788  0.72532190  0.77766700     1.07300
O179        O  0.20410602  0.71941476  0.62877111    -0.77500
O180        O  0.17277699  0.77324380  0.68110224    -0.65100
Ni181      Ni  0.33832510  0.78257569  0.73715707     1.34900
C182        C  0.18257897  0.80320241  0.70320325     0.86000
O183        O  0.31832934  0.75334306  0.63928142    -0.78100
O184        O  0.35711313  0.79059001  0.68127738    -0.88300
C185        C  0.23122148  0.69644682  0.61601019     0.85600
O186        O  0.35687406  0.72826149  0.73598901    -0.66500
O187        O  0.16247906  0.71561167  0.74027762    -0.85800
C188        C  0.34351780  0.69665061  0.71923701     0.86400
C189        C  0.34767295  0.77572902  0.64539002     1.08000
H190        H  0.24232262  0.69506476  0.72158787     0.39800
O191        O  0.23613225  0.72100139  0.70973000    -1.08500
O192        O  0.21041083  0.80144944  0.73073062    -0.65100
Ni193      Ni  0.24630134  0.75973209  0.75186581     1.26300
O194        O  0.31143782  0.69601108  0.69824473    -0.65400
O195        O  0.20617831  0.74121364  0.78705963    -0.77700
C196        C  0.29520663  0.79734356  0.80969685     0.85800
O197        O  0.26089828  0.79702276  0.79378168    -0.64800
Ni198      Ni  0.18503030  0.71782859  0.68526690     1.27400
Ni199      Ni  0.27725241  0.73645720  0.67390696     1.26100
H200        H  0.27860717  0.80173654  0.70268289     0.40300
O201        O  0.97328792  0.93896868  0.72254841    -0.73200
O202        O  0.04299035  0.02707069  0.72319541    -0.73200
O203        O  0.96440197  0.01978167  0.72138736    -0.73200
O204        O  0.05243982  0.94646099  0.72518387    -0.73300
O205        O  0.05242904  0.94436978  0.65489878    -0.73200
O206        O  0.96489948  0.01911707  0.65110724    -0.73200
O207        O  0.04387686  0.02546437  0.65284151    -0.73200
O208        O  0.97318024  0.93818108  0.65226097    -0.73200
Ni209      Ni  0.00826457  0.98305264  0.72552538     1.25400
Ni210      Ni  0.00866730  0.98169604  0.65026005     1.25400
C211        C  0.96125917  0.92424029  0.68728754     0.89000
C212        C  0.05479909  0.04095982  0.68807309     0.89000
C213        C  0.95037825  0.03217149  0.68582243     0.89000
C214        C  0.06686240  0.93287911  0.69074677     0.89100
O215        O  0.31370690  0.18143569  0.74347141    -0.79600
O216        O  0.23778858  0.31486959  0.63692720    -0.64300
O217        O  0.26998339  0.25157688  0.73020507    -1.10900
C218        C  0.16042643  0.17377987  0.68937141     1.07300
O219        O  0.17547096  0.31512372  0.65622015    -0.77500
O220        O  0.15434017  0.27215716  0.72383508    -0.65100
Ni221      Ni  0.32355672  0.23772268  0.74050011     1.34900
C222        C  0.16818117  0.25793500  0.75820836     0.86000
O223        O  0.29560566  0.32333515  0.69388077    -0.78100
O224        O  0.33810669  0.29307112  0.73894531    -0.88300
C225        C  0.20367785  0.33039950  0.63651934     0.85600
O226        O  0.33953095  0.23017740  0.68344259    -0.66500
O227        O  0.14652183  0.20606715  0.67361393    -0.85800
C228        C  0.32417285  0.23898546  0.64780606     0.86400
C229        C  0.32652961  0.32321425  0.71724324     1.08000
H230        H  0.22418624  0.22928418  0.64693798     0.39800
O231        O  0.21759879  0.24359310  0.67251249    -1.08500
O232        O  0.19764696  0.23415038  0.75953759    -0.65100
Ni233      Ni  0.23268417  0.21050346  0.71876894     1.26300
O234        O  0.29122925  0.25720405  0.64373749    -0.65400
O235        O  0.19448055  0.17061994  0.70628568    -0.77700
C236        C  0.28676248  0.16428895  0.76339970     0.85800
O237        O  0.25182528  0.17750871  0.76321238    -0.64800
Ni238      Ni  0.16393198  0.25981956  0.66599566     1.27400
Ni239      Ni  0.25615490  0.28357519  0.68282822     1.26100
H240        H  0.26176677  0.26621825  0.75498813     0.40300
O241        O  0.81918122  0.29778706  0.75462182    -0.79600
O242        O  0.68171376  0.23889086  0.64061551    -0.64300
O243        O  0.74694084  0.26143068  0.73490650    -1.10900
C244        C  0.81824049  0.14583518  0.68625628     1.07300
O245        O  0.67877273  0.17401830  0.65417143    -0.77500
O246        O  0.72354273  0.14099914  0.71952819    -0.65100
Ni247      Ni  0.76480426  0.31455436  0.74571661     1.34900
C248        C  0.73745267  0.15241599  0.75512697     0.86000
O249        O  0.67611331  0.29349446  0.70174133    -0.78100
O250        O  0.71193565  0.33661349  0.74031510    -0.88300
C251        C  0.66520407  0.20553414  0.63614861     0.85600
O252        O  0.77550958  0.33037697  0.68860388    -0.66500
O253        O  0.78651217  0.13595244  0.66703524    -0.85800
C254        C  0.76048205  0.32007031  0.65314172     0.86400
C255        C  0.67984190  0.32626549  0.72216536     1.08000
H256        H  0.76559084  0.21918903  0.64942555     0.39800
O257        O  0.75143251  0.21104550  0.67404276    -1.08500
O258        O  0.75872262  0.18330516  0.75902806    -0.65100
Ni259      Ni  0.78451138  0.22006117  0.72192433     1.26300
O260        O  0.73831072  0.28976058  0.64940074    -0.65400
O261        O  0.82147402  0.17814630  0.70767132    -0.77700
C262        C  0.83266682  0.26707552  0.77417943     0.85800
O263        O  0.81708930  0.23312442  0.76923688    -0.64800
Ni264      Ni  0.73350362  0.15773325  0.66250734     1.27400
Ni265      Ni  0.71378054  0.25219608  0.68726744     1.26100
H266        H  0.73279341  0.25359944  0.75964724     0.40300
O267        O  0.69208120  0.80269070  0.65683604    -0.79600
O268        O  0.82507048  0.73454512  0.77386950    -0.64300
O269        O  0.76192665  0.75899818  0.67768931    -1.10900
C270        C  0.68563240  0.65375916  0.72869221     1.07300
O271        O  0.82591960  0.66950040  0.76118451    -0.77500
O272        O  0.78389069  0.64319340  0.69169472    -0.65100
Ni273      Ni  0.74759143  0.81329821  0.66486746     1.34900
C274        C  0.76696276  0.65321909  0.65708649     0.86000
O275        O  0.83351164  0.78469260  0.71091487    -0.78100
O276        O  0.80161944  0.82911447  0.66916376    -0.88300
C277        C  0.83954593  0.70009572  0.78013377     0.85600
O278        O  0.73887220  0.83257727  0.72142604    -0.66500
O279        O  0.71838623  0.63889275  0.74148812    -0.85800
C280        C  0.75208975  0.82150778  0.75749344     0.86400
C281        C  0.83221909  0.81620694  0.68876683     1.08000
H282        H  0.74192533  0.72041117  0.76551690     0.39800
O283        O  0.75494600  0.71142181  0.74026450    -1.08500
O284        O  0.74254500  0.68238145  0.65518693    -0.65100
Ni285      Ni  0.72176651  0.72313771  0.69297805     1.26300
O286        O  0.77152114  0.78898561  0.76254486    -0.65400
O287        O  0.68236298  0.68767245  0.71083913    -0.77700
C288        C  0.67671094  0.77256651  0.63856401     0.85800
O289        O  0.68941533  0.73757644  0.64607829    -0.64800
Ni290      Ni  0.77144467  0.65696512  0.74919110     1.27400
Ni291      Ni  0.79419110  0.74830892  0.72612445     1.26100
H292        H  0.77528803  0.74848054  0.65330816     0.40300
O293        O  0.45570041  0.46035031  0.75908622    -0.73200
O294        O  0.53915863  0.53542104  0.76679060    -0.73200
O295        O  0.45938317  0.54171263  0.76241093    -0.73200
O296        O  0.53604140  0.45504733  0.76247800    -0.73300
O297        O  0.53783302  0.45844178  0.69242768    -0.73200
O298        O  0.46014787  0.54264520  0.69218150    -0.73200
O299        O  0.53951167  0.53901560  0.69641740    -0.73200
O300        O  0.45765678  0.46154404  0.68894489    -0.73200
Ni301      Ni  0.49735985  0.49797465  0.76519469     1.25400
Ni302      Ni  0.49879232  0.50042257  0.69005997     1.25400
C303        C  0.44271697  0.44834262  0.72302104     0.89000
C304        C  0.55312460  0.54945494  0.73277535     0.89000
C305        C  0.44723666  0.55672411  0.72707361     0.89000
C306        C  0.55070283  0.44334446  0.72727521     0.89100
O307        O  0.54498504  0.45906611  0.13109013    -0.73200
O308        O  0.46976831  0.54304567  0.13201679    -0.73200
O309        O  0.54902110  0.53940849  0.13330941    -0.73200
O310        O  0.46542706  0.46259882  0.13109392    -0.73300
O311        O  0.46660326  0.46239418  0.20145264    -0.73200
O312        O  0.54907236  0.53806417  0.20369819    -0.73200
O313        O  0.47003255  0.54219545  0.20259023    -0.73200
O314        O  0.54532004  0.45757149  0.20170663    -0.73200
Ni315      Ni  0.50728975  0.50107035  0.12930019     1.25400
Ni316      Ni  0.50785312  0.50005198  0.20484278     1.25400
C317        C  0.55745424  0.44456984  0.16614062     0.89000
C318        C  0.45714125  0.55598861  0.16727951     0.89000
C319        C  0.56279253  0.55136696  0.16916169     0.89000
C320        C  0.45196001  0.45013226  0.16632747     0.89100
O321        O  0.74562954  0.53151263  0.41311243    -0.73200
O322        O  0.74201608  0.44875502  0.49784981    -0.73200
O323        O  0.74591810  0.53055880  0.49894492    -0.73200
O324        O  0.74150302  0.45001801  0.41139815    -0.73300
O325        O  0.80646949  0.44526197  0.41167768    -0.73200
O326        O  0.81103739  0.52636114  0.50031067    -0.73200
O327        O  0.80716073  0.44479412  0.49909082    -0.73200
O328        O  0.81073674  0.52694329  0.41330159    -0.73200
Ni329      Ni  0.74157585  0.49027423  0.45531502     1.25400
Ni330      Ni  0.81117297  0.48562629  0.45611438     1.25400
C331        C  0.77872416  0.54306953  0.39926148     0.89000
C332        C  0.77398273  0.43335662  0.51291324     0.89000
C333        C  0.77904720  0.54209183  0.51404181     0.89000
C334        C  0.77298754  0.43444695  0.39649629     0.89100
O335        O  0.54226017  0.82365689  0.40983808    -0.73200
O336        O  0.46279930  0.82756402  0.49295573    -0.73200
O337        O  0.54178261  0.82325925  0.49568548    -0.73200
O338        O  0.46232849  0.82720169  0.40664325    -0.73300
O339        O  0.46155686  0.76067944  0.40706906    -0.73200
O340        O  0.53828241  0.75701021  0.49540545    -0.73200
O341        O  0.45991372  0.76092830  0.49137538    -0.73200
O342        O  0.54030104  0.75723592  0.41061536    -0.73200
Ni343      Ni  0.50232324  0.82797379  0.45117408     1.25400
Ni344      Ni  0.49994391  0.75674933  0.45100498     1.25400
C345        C  0.55495727  0.78961747  0.39715450     0.89000
C346        C  0.44884156  0.79471134  0.50600792     0.89000
C347        C  0.55277011  0.78913730  0.51055713     0.89000
C348        C  0.44860021  0.79401008  0.39263635     0.89100
O349        O  0.16385104  0.47421608  0.50246091    -0.73200
O350        O  0.17671061  0.54271227  0.40668837    -0.73200
O351        O  0.16691661  0.46402349  0.41710428    -0.73200
O352        O  0.17289396  0.55441392  0.49066671    -0.73300
O353        O  0.23778370  0.54653674  0.49411443    -0.73200
O354        O  0.23161827  0.45511024  0.42438283    -0.73200
O355        O  0.24124474  0.53269011  0.41148868    -0.73200
O356        O  0.22883422  0.46821541  0.50784470    -0.73200
Ni357      Ni  0.16755820  0.50905701  0.45426588     1.25400
Ni358      Ni  0.23702261  0.50027114  0.45983691     1.25400
C359        C  0.19474430  0.45992287  0.52093515     0.89000
C360        C  0.21136012  0.54851872  0.39311336     0.89000
C361        C  0.19866426  0.44552143  0.40780837     0.89000
C362        C  0.20673756  0.56646559  0.50267572     0.89100
O363        O  0.44782166  0.24870770  0.49738853    -0.73200
O364        O  0.52737170  0.24688527  0.41325501    -0.73200
O365        O  0.44775141  0.24999282  0.41227213    -0.73200
O366        O  0.52703753  0.24486776  0.49896918    -0.73300
O367        O  0.52488385  0.17852061  0.49703458    -0.73200
O368        O  0.44565575  0.18347988  0.41055821    -0.73200
O369        O  0.52547920  0.18061551  0.41117833    -0.73200
O370        O  0.44536140  0.18234155  0.49674587    -0.73200
Ni371      Ni  0.48757530  0.24991559  0.45549762     1.25400
Ni372      Ni  0.48527620  0.17884965  0.45378488     1.25400
C373        C  0.43322925  0.21625295  0.51099923     0.89000
C374        C  0.53997361  0.21357909  0.39826058     0.89000
C375        C  0.43361789  0.21758652  0.39721716     0.89000
C376        C  0.53887981  0.21070086  0.51260642     0.89100
C377        C  0.63138891  0.81578886  0.59311240     0.24900
C378        C  0.64306959  0.77776129  0.60817653    -0.23200
C379        C  0.62333608  0.74405733  0.59217891     0.19800
C380        C  0.59343502  0.74809689  0.56181669     0.24800
C381        C  0.58278890  0.78590826  0.54533212    -0.23200
C382        C  0.60172555  0.81979409  0.56199820     0.19700
F383        F  0.59196559  0.85693732  0.54798624    -0.13100
F384        F  0.64928127  0.84922640  0.60757794    -0.15500
F385        F  0.57512846  0.71442322  0.54856475    -0.15500
F386        F  0.63307918  0.70662304  0.60539745    -0.13200
C387        C  0.74843346  0.63159326  0.58224466     0.24900
C388        C  0.77409544  0.62856394  0.61772117    -0.23200
C389        C  0.80438314  0.59931108  0.61616060     0.19800
C390        C  0.80745270  0.57274313  0.58154649     0.24800
C391        C  0.77967343  0.57371840  0.54802675    -0.23200
C392        C  0.75085353  0.60430677  0.54839688     0.19700
F393        F  0.72465169  0.60785671  0.51579214    -0.13100
F394        F  0.71974164  0.66008381  0.58072552    -0.15500
F395        F  0.83661779  0.54477235  0.58193750    -0.15500
F396        F  0.83075587  0.59569497  0.64858509    -0.13200
C397        C  0.64971050  0.59718477  0.76197007     0.24900
C398        C  0.64991025  0.62968594  0.73370570    -0.23200
C399        C  0.61611167  0.63768654  0.70876796     0.19800
C400        C  0.58453140  0.61173716  0.70909329     0.24800
C401        C  0.58543148  0.57803769  0.73523033    -0.23200
C402        C  0.61772143  0.57154623  0.76266813     0.19700
F403        F  0.61914440  0.53942197  0.78876340    -0.13100
F404        F  0.68043091  0.59011340  0.78893551    -0.15500
F405        F  0.55282918  0.61962271  0.68382879    -0.15500
F406        F  0.61374692  0.67008637  0.68317983    -0.13200
C407        C  0.79700021  0.37484094  0.61458439     0.24900
C408        C  0.76695554  0.34613408  0.61499990    -0.23200
C409        C  0.74026260  0.34574757  0.58027146     0.19800
C410        C  0.74277292  0.37365920  0.54723104     0.24800
C411        C  0.77246789  0.40243947  0.54716720    -0.23200
C412        C  0.79987452  0.40224482  0.58102229     0.19700
F413        F  0.82843247  0.43005024  0.58279237    -0.13100
F414        F  0.82336615  0.37709840  0.64710499    -0.15500
F415        F  0.71587967  0.37249942  0.51514217    -0.15500
F416        F  0.71035666  0.31945368  0.57897598    -0.13200
C417        C  0.57874652  0.24228851  0.57062831     0.24900
C418        C  0.56903162  0.20820475  0.54679975    -0.23200
C419        C  0.58824084  0.17163214  0.55635776     0.19800
C420        C  0.61789217  0.16976367  0.58748556     0.24800
C421        C  0.62934507  0.20457274  0.60912155    -0.23200
C422        C  0.60832737  0.24041968  0.60144435     0.19700
F423        F  0.61651071  0.27409827  0.62376364    -0.13100
F424        F  0.55964797  0.27768546  0.56440538    -0.15500
F425        F  0.63623358  0.13422008  0.59513760    -0.15500
F426        F  0.57922108  0.13774744  0.53480610    -0.13200
C427        C  0.63069439  0.36792930  0.76262101     0.24900
C428        C  0.64568630  0.35462080  0.72381038    -0.23200
C429        C  0.62935960  0.37060460  0.68632151     0.19800
C430        C  0.59959659  0.40003150  0.68756433     0.24800
C431        C  0.58332725  0.41253417  0.72637298    -0.23200
C432        C  0.59947893  0.39590941  0.76394856     0.19700
F433        F  0.58555918  0.40702814  0.80221930    -0.13100
F434        F  0.64590437  0.35326178  0.79941606    -0.15500
F435        F  0.58750445  0.41689506  0.65052042    -0.15500
F436        F  0.64322367  0.35873084  0.64825309    -0.13200
C437        C  0.35221919  0.25964700  0.57910595     0.24900
C438        C  0.34737801  0.22989136  0.60958665    -0.23200
C439        C  0.36867969  0.19374044  0.60566101     0.19800
C440        C  0.39571508  0.18830152  0.57291325     0.24800
C441        C  0.40198795  0.21907939  0.54351391    -0.23200
C442        C  0.37910398  0.25438172  0.54661621     0.19700
F443        F  0.38313379  0.28445819  0.51844637    -0.13100
F444        F  0.33253522  0.29502768  0.58214802    -0.15500
F445        F  0.41695418  0.15376243  0.57131755    -0.15500
F446        F  0.36348244  0.16382328  0.63380389    -0.13200
C447        C  0.22726850  0.39568816  0.61244331     0.24900
C448        C  0.19712908  0.36785320  0.61347367    -0.23200
C449        C  0.16241175  0.37490898  0.58988889     0.19800
C450        C  0.16004560  0.40692200  0.56154277     0.24800
C451        C  0.19233853  0.43214820  0.55689379    -0.23200
C452        C  0.22514009  0.42730980  0.58419889     0.19700
F453        F  0.25607240  0.45227066  0.58248811    -0.13100
F454        F  0.25928270  0.39173420  0.63829786    -0.15500
F455        F  0.12748894  0.41132091  0.53664149    -0.15500
F456        F  0.13191068  0.34943785  0.59219188    -0.13200
C457        C  0.36518385  0.37600213  0.68085865     0.24900
C458        C  0.35164335  0.35907456  0.71843851    -0.23200
C459        C  0.36615763  0.37353964  0.75724433     0.19800
C460        C  0.39502536  0.40284436  0.75867698     0.24800
C461        C  0.41025657  0.41867091  0.72111112    -0.23200
C462        C  0.39429115  0.40531565  0.68209786     0.19700
F463        F  0.40740229  0.41976860  0.64495933    -0.13100
F464        F  0.35172922  0.36267943  0.64278112    -0.15500
F465        F  0.40860168  0.41488853  0.79717118    -0.15500
F466        F  0.35240155  0.35904515  0.79406356    -0.13200
C467        C  0.91464927  0.87852285  0.64874491     0.24900
C468        C  0.93183244  0.89206702  0.68707284    -0.23200
C469        C  0.91812749  0.87682617  0.72550753     0.19800
C470        C  0.88593807  0.85169626  0.72573671     0.24800
C471        C  0.86775999  0.84007991  0.68763923    -0.23200
C472        C  0.88287719  0.85267231  0.64916666     0.19700
F473        F  0.86665653  0.84009658  0.61203790    -0.13100
F474        F  0.92769960  0.89099417  0.61078835    -0.15500
F475        F  0.87101280  0.84063856  0.76338413    -0.15500
F476        F  0.93494792  0.88709524  0.76314011    -0.13200
C477        C  0.89318605  0.06749415  0.64872123     0.24900
C478        C  0.91712063  0.06203985  0.68514242    -0.23200
C479        C  0.90845726  0.08511649  0.72133016     0.19800
C480        C  0.87685869  0.11242133  0.72114032     0.24800
C481        C  0.85276860  0.11768207  0.68495945    -0.23200
C482        C  0.86117719  0.09454407  0.64879399     0.19700
F483        F  0.83845868  0.09804370  0.61332699    -0.13100
F484        F  0.90001460  0.04580817  0.61320760    -0.15500
F485        F  0.86857405  0.13230231  0.75737066    -0.15500
F486        F  0.93045089  0.08132019  0.75731224    -0.13200
C487        C  0.10518778  0.08300628  0.72432877     0.24900
C488        C  0.08176174  0.07501696  0.68830279    -0.23200
C489        C  0.08504777  0.09938022  0.65238545     0.19800
C490        C  0.11165654  0.13066201  0.65239143     0.24800
C491        C  0.13490408  0.13867327  0.68844234    -0.23200
C492        C  0.13153528  0.11452328  0.72437827     0.19700
F493        F  0.15309507  0.12192921  0.75994171    -0.13100
F494        F  0.10317484  0.05986396  0.75936611    -0.15500
F495        F  0.11539184  0.15264856  0.61674477    -0.15500
F496        F  0.06220477  0.09338616  0.61740068    -0.13200
C497        C  0.24790747  0.62181163  0.52959748     0.24900
C498        C  0.21090448  0.60382243  0.52661876    -0.23200
C499        C  0.17919857  0.62083593  0.54836512     0.19800
C500        C  0.18544899  0.65261866  0.57609083     0.24800
C501        C  0.22331270  0.66804197  0.58186296    -0.23200
C502        C  0.25422409  0.65310792  0.55758631     0.19700
F503        F  0.29094358  0.66787791  0.56186137    -0.13100
F504        F  0.27840326  0.60866836  0.50602196    -0.15500
F505        F  0.15509893  0.66611327  0.59966952    -0.15500
F506        F  0.14265165  0.60556974  0.54464655    -0.13200
C507        C  0.40730678  0.80538960  0.61362814     0.24900
C508        C  0.37214211  0.78409366  0.60874400    -0.23200
C509        C  0.36143139  0.76907621  0.56842916     0.19800
C510        C  0.38589811  0.77411424  0.53441193     0.24800
C511        C  0.42075216  0.79500650  0.53968663    -0.23200
C512        C  0.43120876  0.81112327  0.57907215     0.19700
F513        F  0.46599322  0.82978688  0.58472334    -0.13100
F514        F  0.41966977  0.81908145  0.65198773    -0.15500
F515        F  0.37605017  0.75769825  0.49642449    -0.15500
F516        F  0.32792791  0.74837899  0.56180213    -0.13200
C517        C  0.38645142  0.64835011  0.76049525     0.24900
C518        C  0.36744658  0.65928720  0.72243497    -0.23200
C519        C  0.37410841  0.63596467  0.68614179     0.19800
C520        C  0.39934281  0.60251361  0.68779826     0.24800
C521        C  0.41848769  0.59116737  0.72603382    -0.23200
C522        C  0.41117348  0.61441935  0.76249641     0.19700
F523        F  0.42899343  0.60531016  0.79996379    -0.13100
F524        F  0.38138046  0.67087533  0.79579034    -0.15500
F525        F  0.40543754  0.58173343  0.65151324    -0.15500
F526        F  0.35802841  0.64701569  0.64828276    -0.13200
C527        C  0.13505858  0.84622230  0.66078107     0.24900
C528        C  0.15812538  0.84053902  0.69785281    -0.23200
C529        C  0.15279263  0.86763419  0.73156737     0.19800
C530        C  0.12453161  0.89867723  0.72863855     0.24800
C531        C  0.09983153  0.90267449  0.69249487    -0.23200
C532        C  0.10579930  0.87604959  0.65857946     0.19700
F533        F  0.08179997  0.87725878  0.62391826    -0.13100
F534        F  0.13990184  0.82196978  0.62672081    -0.15500
F535        F  0.12095818  0.92439255  0.76165902    -0.15500
F536        F  0.17328474  0.86279841  0.76841550    -0.13200
C537        C  0.09543476  0.68014187  0.84412978     0.24900
C538        C  0.09183926  0.70914283  0.87606470    -0.23200
C539        C  0.11601794  0.74279784  0.87594864     0.19800
C540        C  0.14238414  0.74809022  0.84358478     0.24800
C541        C  0.14620168  0.71898689  0.81189246    -0.23200
C542        C  0.12306027  0.68468701  0.81263077     0.19700
F543        F  0.12777657  0.65531360  0.78337485    -0.13100
F544        F  0.07171978  0.64794090  0.84288128    -0.15500
F545        F  0.16351708  0.78214671  0.84265580    -0.15500
F546        F  0.11468471  0.77027124  0.90760388    -0.13200
C547        C  0.92490509  0.72883903  0.85049653     0.24900
C548        C  0.93052689  0.69451625  0.87559454    -0.23200
C549        C  0.90866051  0.66020453  0.86588999     0.19800
C550        C  0.88039561  0.66102574  0.83312995     0.24800
C551        C  0.87314942  0.69635153  0.81009336    -0.23200
C552        C  0.89643720  0.72984828  0.81853706     0.19700
F553        F  0.89169951  0.76396702  0.79584052    -0.13100
F554        F  0.94725236  0.76169274  0.85647493    -0.15500
F555        F  0.85900821  0.62785468  0.82528701    -0.15500
F556        F  0.91359320  0.62632798  0.88891129    -0.13200
C557        C  0.71704274  0.87910274  0.79440999     0.24900
C558        C  0.74622414  0.84872575  0.79500968    -0.23200
C559        C  0.77195182  0.84692409  0.83055495     0.19800
C560        C  0.76875137  0.87468187  0.86390847     0.24800
C561        C  0.73951489  0.90476837  0.86318968    -0.23200
C562        C  0.71344734  0.90632606  0.82822482     0.19700
F563        F  0.68538008  0.93539514  0.82584812    -0.13100
F564        F  0.69209188  0.88295074  0.76074832    -0.15500
F565        F  0.79425174  0.87194034  0.89724281    -0.15500
F566        F  0.80142849  0.81929352  0.83248138    -0.13200
C567        C  0.70073108  0.07075426  0.82930665     0.24900
C568        C  0.72808706  0.07313774  0.86315570    -0.23200
C569        C  0.75605658  0.10346696  0.86240660     0.19800
C570        C  0.75749550  0.13018549  0.82855993     0.24800
C571        C  0.73127335  0.12721723  0.79366336    -0.23200
C572        C  0.70261888  0.09710419  0.79468135     0.19700
F573        F  0.67719132  0.09218021  0.76163581    -0.13100
F574        F  0.67366642  0.04140472  0.82841988    -0.15500
F575        F  0.78651647  0.15748290  0.82905304    -0.15500
F576        F  0.78286801  0.10688837  0.89436904    -0.13200
C577        C  0.92040637  0.23891814  0.84427808     0.24900
C578        C  0.93066895  0.27585373  0.86246392    -0.23200
C579        C  0.91044525  0.31055022  0.84856833     0.19800
C580        C  0.87944144  0.30795542  0.81900470     0.24800
C581        C  0.86780635  0.27063465  0.80264798    -0.23200
C582        C  0.88938944  0.23635167  0.81508633     0.19700
F583        F  0.88070816  0.19994529  0.79896255    -0.13100
F584        F  0.94028193  0.20483063  0.85469895    -0.15500
F585        F  0.86010668  0.34201051  0.80748303    -0.15500
F586        F  0.91997969  0.34706816  0.86409443    -0.13200
C587        C  0.15168450  0.24286121  0.83387922     0.24900
C588        C  0.14724949  0.26762786  0.79806253    -0.23200
C589        C  0.11914667  0.29897070  0.79922214     0.19800
C590        C  0.09425650  0.30342149  0.83369098     0.24800
C591        C  0.09680275  0.27677953  0.86782274    -0.23200
C592        C  0.12644288  0.24713111  0.86811293     0.19700
F593        F  0.13062929  0.22176656  0.90133545    -0.13100
F594        F  0.17919730  0.21317736  0.83515491    -0.15500
F595        F  0.06593132  0.33228830  0.83236993    -0.15500
F596        F  0.11485425  0.32482881  0.76645687    -0.13200
C597        C  0.28229144  0.06135170  0.80979502     0.24900
C598        C  0.31035431  0.06467109  0.84272484    -0.23200
C599        C  0.33424894  0.09837325  0.84501868     0.19800
C600        C  0.32698632  0.13045387  0.81811132     0.24800
C601        C  0.29686468  0.12852824  0.78757088    -0.23200
C602        C  0.27579550  0.09318058  0.78200660     0.19700
F603        F  0.24858907  0.08991960  0.75036749    -0.13100
F604        F  0.26031289  0.02801550  0.80563434    -0.15500
F605        F  0.34709916  0.16474131  0.82426772    -0.15500
F606        F  0.36191418  0.10204090  0.87609579    -0.13200
C607        C  0.27319779  0.83706787  0.87055136     0.24900
C608        C  0.30367497  0.82547854  0.84395509    -0.23200
C609        C  0.33910057  0.84653720  0.84505594     0.19800
C610        C  0.34234734  0.88117346  0.86961067     0.24800
C611        C  0.31002498  0.89500367  0.89271053    -0.23200
C612        C  0.27614480  0.87164639  0.89441329     0.19700
F613        F  0.24479204  0.88329574  0.91751335    -0.13100
F614        F  0.23932607  0.81630832  0.87127631    -0.15500
F615        F  0.37561748  0.90282363  0.86778862    -0.15500
F616        F  0.36898955  0.83600911  0.81931196    -0.13200
C617        C  0.36678139  0.75246830  0.32485654     0.24900
C618        C  0.36778994  0.77640095  0.28842377    -0.23200
C619        C  0.39255285  0.81004279  0.28899275     0.19800
C620        C  0.41672515  0.81824649  0.32440685     0.24800
C621        C  0.41752395  0.79232346  0.35925442    -0.23200
C622        C  0.39116373  0.76039305  0.35964036     0.19700
F623        F  0.38978643  0.73577252  0.39358727    -0.13100
F624        F  0.34373839  0.71981062  0.32628162    -0.15500
F625        F  0.44081829  0.85014626  0.32355667    -0.15500
F626        F  0.39428139  0.83447991  0.25493498    -0.13200
C627        C  0.19129263  0.61594580  0.29970838     0.24900
C628        C  0.22917348  0.63008694  0.29167324    -0.23200
C629        C  0.26145025  0.61314965  0.31353691     0.19800
C630        C  0.25571629  0.58591916  0.34580246     0.24800
C631        C  0.21753734  0.57424186  0.35623645    -0.23200
C632        C  0.18557140  0.58833838  0.33172965     0.19700
F633        F  0.14850358  0.57646450  0.33944044    -0.13100
F634        F  0.15932659  0.63003467  0.27804083    -0.15500
F635        F  0.28770249  0.57267479  0.36802985    -0.15500
F636        F  0.29864986  0.62418998  0.30521873    -0.13200
C637        C  0.42714491  0.61716026  0.13645472     0.24900
C638        C  0.42695629  0.58697751  0.16706560    -0.23200
C639        C  0.39744923  0.58632264  0.19722945     0.19800
C640        C  0.36940271  0.61664325  0.19809642     0.24800
C641        C  0.37142159  0.64884350  0.16966238    -0.23200
C642        C  0.40005386  0.64840202  0.13825771     0.19700
F643        F  0.40224894  0.67835713  0.10961309    -0.13100
F644        F  0.45433964  0.61716132  0.10563673    -0.15500
F645        F  0.34127108  0.61501522  0.22784799    -0.15500
F646        F  0.39546067  0.55605992  0.22556921    -0.13200
C647        C  0.25581135  0.89491643  0.09654298     0.24900
C648        C  0.28977859  0.87818133  0.11544523    -0.23200
C649        C  0.32614281  0.89644445  0.10880502     0.19800
C650        C  0.32899383  0.92747602  0.07980954     0.24800
C651        C  0.29557601  0.94074396  0.05699106    -0.23200
C652        C  0.25863230  0.92605686  0.06792395     0.19700
F653        F  0.22510272  0.93995271  0.04910121    -0.13100
F654        F  0.21982450  0.87984913  0.10370415    -0.15500
F655        F  0.36483405  0.94292550  0.07264171    -0.15500
F656        F  0.35944663  0.88309275  0.12855218    -0.13200
C657        C  0.15067531  0.75306360  0.08451592     0.24900
C658        C  0.15472146  0.72776355  0.11965941    -0.23200
C659        C  0.13388310  0.69157648  0.11967293     0.19800
C660        C  0.10734003  0.68259081  0.08667043     0.24800
C661        C  0.10100086  0.70983302  0.05345356    -0.23200
C662        C  0.12395029  0.74435499  0.05203032     0.19700
F663        F  0.12007848  0.77021870  0.01921884    -0.13100
F664        F  0.17127943  0.78733819  0.08235639    -0.15500
F665        F  0.08662482  0.64830751  0.08826194    -0.15500
F666        F  0.13916826  0.66493276  0.15161117    -0.13200
C667        C  0.80559420  0.60240237  0.30091147     0.24900
C668        C  0.77681781  0.63311600  0.30006389    -0.23200
C669        C  0.75056404  0.63536267  0.33401442     0.19800
C670        C  0.75139747  0.60640005  0.36613051     0.24800
C671        C  0.77962562  0.57527420  0.36645017    -0.23200
C672        C  0.80766824  0.57463179  0.33425490     0.19700
F673        F  0.83619510  0.54599625  0.33392115    -0.13100
F674        F  0.83145685  0.59869364  0.26897623    -0.15500
F675        F  0.72440033  0.60889532  0.39708235    -0.15500
F676        F  0.72262075  0.66449779  0.33522438    -0.13200
C677        C  0.62762861  0.81713036  0.31335873     0.24900
C678        C  0.64802369  0.78068791  0.30804421    -0.23200
C679        C  0.63840973  0.74796551  0.33363404     0.19800
C680        C  0.60818222  0.75102512  0.36225217     0.24800
C681        C  0.58724424  0.78715469  0.36696491    -0.23200
C682        C  0.59779903  0.82044977  0.34287847     0.19700
F683        F  0.57909557  0.85620437  0.34745332    -0.13100
F684        F  0.63648870  0.84971543  0.29019755    -0.15500
F685        F  0.60015618  0.71851930  0.38601835    -0.15500
F686        F  0.65851999  0.71278255  0.33176630    -0.13200
C687        C  0.63178284  0.63067790  0.21143414     0.24900
C688        C  0.65930722  0.63350356  0.17896928    -0.23200
C689        C  0.65369691  0.61029789  0.14207266     0.19800
C690        C  0.62197938  0.58418023  0.13835861     0.24800
C691        C  0.59513670  0.58068506  0.17139385    -0.23200
C692        C  0.60021465  0.60469023  0.20769576     0.19700
F693        F  0.57443648  0.60325362  0.23984208    -0.13100
F694        F  0.63589282  0.65224394  0.24764036    -0.15500
F695        F  0.61828413  0.56145081  0.10292340    -0.15500
F696        F  0.67869852  0.61303937  0.10932905    -0.13200
C697        C  0.88322744  0.66788632  0.09933100     0.24900
C698        C  0.88151496  0.70228606  0.12493618    -0.23200
C699        C  0.91005954  0.73161837  0.12119312     0.19800
C700        C  0.93843305  0.72805919  0.09050871     0.24800
C701        C  0.93883596  0.69497455  0.06298860    -0.23200
C702        C  0.91204317  0.66407176  0.06863620     0.19700
F703        F  0.91196436  0.63170683  0.04266424    -0.13100
F704        F  0.85530734  0.63954085  0.10181429    -0.15500
F705        F  0.96503175  0.75762191  0.08706556    -0.15500
F706        F  0.90997691  0.76427133  0.14670731    -0.13200
C707        C  0.71251848  0.87322458  0.10973644     0.24900
C708        C  0.74707623  0.85064887  0.11743099    -0.23200
C709        C  0.77801384  0.85439968  0.08862154     0.19800
C710        C  0.77515287  0.88123446  0.05456220     0.24800
C711        C  0.74135707  0.90528288  0.04821637    -0.23200
C712        C  0.70980917  0.90032619  0.07588108     0.19700
F713        F  0.67657622  0.92272860  0.07112074    -0.13100
F714        F  0.68109466  0.86905385  0.13496484    -0.15500
F715        F  0.80558957  0.88347283  0.02763876    -0.15500
F716        F  0.81185082  0.83308465  0.09408728    -0.13200
C717        C  0.58649152  0.17754389  0.34839308     0.24900
C718        C  0.57170679  0.21351688  0.36572731    -0.23200
C719        C  0.58790687  0.24963657  0.35168542     0.19800
C720        C  0.61669726  0.24981184  0.32049969     0.24800
C721        C  0.63140785  0.21378624  0.30299159    -0.23200
C722        C  0.61619078  0.17765764  0.31806470     0.19700
F723        F  0.63026997  0.14205544  0.30387991    -0.13100
F724        F  0.57247254  0.14184811  0.36088891    -0.15500
F725        F  0.63035859  0.28569193  0.30794411    -0.15500
F726        F  0.57625837  0.28524839  0.36826518    -0.13200
C727        C  0.79835881  0.36828258  0.30018885     0.24900
C728        C  0.76178873  0.35187486  0.28902118    -0.23200
C729        C  0.72947547  0.36181381  0.31438312     0.19800
C730        C  0.73339689  0.38772297  0.34928277     0.24800
C731        C  0.76997541  0.40434697  0.36071185    -0.23200
C732        C  0.80263638  0.39328714  0.33605900     0.19700
F733        F  0.83877283  0.40728174  0.34594709    -0.13100
F734        F  0.83013603  0.36016673  0.27626019    -0.15500
F735        F  0.70085154  0.39675125  0.37165704    -0.15500
F736        F  0.69327040  0.34806412  0.30416404    -0.13200
C737        C  0.61109762  0.34886778  0.19036201     0.16100
C738        C  0.64562036  0.35383701  0.16719328    -0.23200
C739        C  0.64934781  0.38794831  0.14161811     0.19800
C740        C  0.62017415  0.41726688  0.14097422     0.24800
C741        C  0.58676089  0.41280304  0.16537808    -0.23200
C742        C  0.58204241  0.37845065  0.18968588     0.19700
F743        F  0.54957097  0.37393229  0.21331606    -0.13100
F744        F  0.60617295  0.31656229  0.21543393    -0.15500
F745        F  0.62572413  0.45126428  0.11867810    -0.15500
F746        F  0.68181435  0.39384289  0.11834611    -0.13200
C747        C  0.70637303  0.07184016  0.08229291     0.24900
C748        C  0.73175238  0.07485367  0.04785839    -0.23200
C749        C  0.75744089  0.10736113  0.04709580     0.19800
C750        C  0.75809075  0.13582302  0.07997303     0.24800
C751        C  0.73387972  0.13200403  0.11564994    -0.23200
C752        C  0.70738953  0.09989014  0.11564255     0.19700
F753        F  0.68290818  0.09481419  0.14846804    -0.13100
F754        F  0.68192125  0.04037042  0.08492071    -0.15500
F755        F  0.78317796  0.16675236  0.07690767    -0.15500
F756        F  0.78212395  0.11170399  0.01427236    -0.13200
C757        C  0.88552952  0.23927691  0.08975340     0.24900
C758        C  0.86670834  0.27418301  0.10460749    -0.23200
C759        C  0.87862063  0.31126016  0.08820620     0.19800
C760        C  0.90835847  0.31313819  0.05802626     0.24800
C761        C  0.92730513  0.27805749  0.04360184    -0.23200
C762        C  0.91554556  0.24119663  0.06034142     0.19700
F763        F  0.93291924  0.20637865  0.04824128    -0.13100
F764        F  0.87474979  0.20269738  0.10322039    -0.15500
F765        F  0.91809031  0.34940150  0.04260717    -0.15500
F766        F  0.86088720  0.34586957  0.10040589    -0.13200
C767        C  0.18232817  0.39274748  0.30436315     0.24900
C768        C  0.21159474  0.36292707  0.30731142    -0.23200
C769        C  0.23240494  0.35727210  0.34549088     0.19800
C770        C  0.22608343  0.38278213  0.37938479     0.24800
C771        C  0.19856802  0.41409835  0.37577816    -0.23200
C772        C  0.17583241  0.41835262  0.33852370     0.19700
F773        F  0.14954432  0.44893945  0.33402968    -0.13100
F774        F  0.16164225  0.39845202  0.26776695    -0.15500
F775        F  0.24767427  0.37758485  0.41547797    -0.15500
F776        F  0.25877919  0.32685913  0.35012222    -0.13200
C777        C  0.35171654  0.25710040  0.32740519     0.24900
C778        C  0.35487288  0.23217705  0.29143762    -0.23200
C779        C  0.38136613  0.19950396  0.29302891     0.19800
C780        C  0.40525127  0.19314632  0.32882722     0.24800
C781        C  0.40391082  0.21991688  0.36306745    -0.23200
C782        C  0.37619942  0.25119473  0.36257835     0.19700
F783        F  0.37344298  0.27680322  0.39584068    -0.13100
F784        F  0.32657004  0.28882537  0.32793190    -0.15500
F785        F  0.43161202  0.16240198  0.32876289    -0.15500
F786        F  0.38536952  0.17450480  0.25946700    -0.13200
C787        C  0.36997237  0.38645754  0.20850105     0.24900
C788        C  0.36205480  0.36077457  0.17443113    -0.23200
C789        C  0.38169820  0.36654572  0.13614178     0.19800
C790        C  0.40966702  0.39669390  0.13252181     0.24800
C791        C  0.41931544  0.42097742  0.16757237    -0.23200
C792        C  0.39840730  0.41590424  0.20531287     0.19700
F793        F  0.40580978  0.43906931  0.23975990    -0.13100
F794        F  0.35174441  0.38161030  0.24589682    -0.15500
F795        F  0.42819802  0.40101954  0.09521938    -0.15500
F796        F  0.37395170  0.34275677  0.10224248    -0.13200
C797        C  0.12575938  0.25534453  0.04679334     0.24900
C798        C  0.09276675  0.28044900  0.04926952    -0.23200
C799        C  0.08633377  0.30303826  0.08595024     0.19800
C800        C  0.11174272  0.29899914  0.12080328     0.24800
C801        C  0.14440023  0.27277870  0.11899794    -0.23200
C802        C  0.15170592  0.25193648  0.08097780     0.19700
F803        F  0.18298588  0.22675488  0.07713034    -0.13100
F804        F  0.13255325  0.23353800  0.01131084    -0.15500
F805        F  0.10359584  0.31984374  0.15656061    -0.15500
F806        F  0.05411478  0.32706506  0.08897449    -0.13200
C807        C  0.32382565  0.14309800  0.07329950     0.24900
C808        C  0.28657713  0.15072076  0.09045154    -0.23200
C809        C  0.25326497  0.13566334  0.06934424     0.19800
C810        C  0.25721127  0.11049489  0.03464557     0.24800
C811        C  0.29460155  0.10035603  0.01939471    -0.23200
C812        C  0.32773908  0.11841327  0.03787794     0.19700
F813        F  0.36415004  0.11116216  0.02271152    -0.13100
F814        F  0.35663810  0.15912115  0.09085572    -0.15500
F815        F  0.22415974  0.09438853  0.01769907    -0.15500
F816        F  0.21653126  0.14404119  0.08292926    -0.13200
C817        C  0.09616098  0.88758258  0.27591620     0.24900
C818        C  0.09401002  0.91791531  0.24539382    -0.23200
C819        C  0.12135006  0.91797434  0.21269622     0.19800
C820        C  0.14980262  0.88785196  0.20997337     0.24800
C821        C  0.15149938  0.85675326  0.23987146    -0.23200
C822        C  0.12498080  0.85761020  0.27357964     0.19700
F823        F  0.12623617  0.82896030  0.30386242    -0.13100
F824        F  0.06886639  0.88545857  0.30649732    -0.15500
F825        F  0.17446015  0.88837240  0.17679153    -0.15500
F826        F  0.12014867  0.94690150  0.18270514    -0.13200
C827        C  0.86584002  0.88782136  0.27276150     0.24900
C828        C  0.86276500  0.86145030  0.23809362    -0.23200
C829        C  0.89119759  0.86261665  0.20657210     0.19800
C830        C  0.92223773  0.88920357  0.20964362     0.24800
C831        C  0.92548491  0.91551592  0.24427023    -0.23200
C832        C  0.89711377  0.91439972  0.27598669     0.19700
F833        F  0.89859523  0.94027385  0.30911649    -0.13100
F834        F  0.83842849  0.88817143  0.30335387    -0.15500
F835        F  0.94892647  0.88943023  0.17831594    -0.15500
F836        F  0.88772528  0.83954784  0.17140584    -0.13200
C837        C  0.85292541  0.09871413  0.26394579     0.24900
C838        C  0.85265328  0.13046130  0.23478793    -0.23200
C839        C  0.88604726  0.13654743  0.21016716     0.19800
C840        C  0.91879029  0.11157940  0.21447913     0.24800
C841        C  0.91886285  0.07982934  0.24319344    -0.23200
C842        C  0.88575436  0.07343285  0.26786917     0.19700
F843        F  0.88453878  0.04165563  0.29433532    -0.13100
F844        F  0.82159701  0.09211953  0.28872721    -0.15500
F845        F  0.95057865  0.11849054  0.19048611    -0.15500
F846        F  0.88682422  0.16606022  0.18093108    -0.13200
C847        C  0.13268814  0.12662421  0.20029439     0.24900
C848        C  0.14439594  0.14874626  0.23586066    -0.23200
C849        C  0.12849379  0.13966623  0.27542056     0.19800
C850        C  0.10104971  0.10907003  0.27917445     0.24800
C851        C  0.08871771  0.08726822  0.24318442    -0.23200
C852        C  0.10537218  0.09632836  0.20382475     0.19700
F853        F  0.09511874  0.07612739  0.16812522    -0.13100
F854        F  0.14626105  0.13560325  0.16142300    -0.15500
F855        F  0.08625242  0.10141045  0.31783144    -0.15500
F856        F  0.13967898  0.16038931  0.31048357    -0.13200
loop_ 
_geom_bond_atom_site_label_1 
_geom_bond_atom_site_label_2 
_geom_bond_distance 
_geom_bond_site_symmetry_2 
_ccdc_geom_bond_type 
O1           Ni9   1.904   1_565  S
O1           C11   1.279       .  A
O2           Ni9   1.903   1_655  S
O2           C12   1.278       .  A
O3           Ni9   1.900       .  S
O3           C13   1.279       .  A
O4           Ni9   1.906   1_665  S
O4           C14   1.280       .  A
O5          Ni10   1.924   1_665  S
O5           C14   1.283       .  A
O6          Ni10   1.935       .  S
O6           C13   1.285       .  A
O7          Ni10   1.919   1_655  S
O7           C12   1.281       .  A
O8          Ni10   1.922   1_565  S
O8           C11   1.282       .  A
Ni9         Ni10   2.387       .  S
C11         C818   1.474       .  S
C12         C841   1.466       .  S
C13         C851   1.491       .  S
C14         C831   1.479       .  S
O15         Ni21   1.909       .  S
O15          C36   1.264       .  A
O16         Ni39   1.892       .  S
O16          C25   1.265       .  A
O17         Ni21   1.915       .  S
O17         Ni39   1.890       .  S
O17         Ni33   1.922       .  S
O17          H40   0.968       .  S
C18          O35   1.278       .  A
C18          O27   1.275       .  A
C18         C788   1.484       .  S
O19         Ni38   1.919       .  S
O19          C25   1.269       .  A
O20         Ni38   1.916       .  S
O20          C22   1.271       .  A
Ni21         O24   1.916       .  S
Ni21         O26   1.904       .  S
C22          O32   1.268       .  A
C22         C778   1.486       .  S
O23         Ni39   1.932       .  S
O23          C29   1.282       .  A
O24          C29   1.275       .  A
C25         C808   1.479       .  S
O26          C28   1.266       .  A
O27         Ni38   1.926       .  S
C28          O34   1.264       .  A
C28         C801   1.479       .  S
C29         C848   1.478       .  S
H30          O31   0.967       .  S
O31         Ni39   1.922       .  S
O31         Ni33   1.896       .  S
O31         Ni38   1.916       .  S
O32         Ni33   1.909       .  S
Ni33         O37   1.896       .  S
Ni33         O35   1.925       .  S
O34         Ni39   1.901       .  S
C36          O37   1.265       .  A
C36         C768   1.460       .  S
O41         Ni47   1.954       .  S
O41          C62   1.278       .  A
O42         Ni65   1.914       .  S
O42          C51   1.270       .  A
O43         Ni47   1.930       .  S
O43         Ni65   1.917       .  S
O43         Ni59   1.905       .  S
O43          H66   0.938       .  S
C44          O61   1.269       .  A
C44          O53   1.273       .  A
C44         C738   1.471       .  S
O45         Ni64   1.937       .  S
O45          C51   1.272       .  A
O46         Ni64   1.930       .  S
O46          C48   1.273       .  A
Ni47         O50   1.934       .  S
Ni47         O52   1.932       .  S
C48          O58   1.275       .  A
C48         C728   1.506       .  S
O49         Ni65   1.889       .  S
O49          C55   1.269       .  A
O50          C55   1.276       .  A
C51         C758   1.501       .  S
O52          C54   1.277       .  A
O53         Ni64   1.915       .  S
C54          O60   1.276       .  A
C54         C751   1.514       .  S
C55         C838   1.478       .  S
H56          O57   0.983       .  S
O57         Ni65   1.895       .  S
O57         Ni59   1.912       .  S
O57         Ni64   1.925       .  S
O58         Ni59   1.944       .  S
Ni59         O63   1.903       .  S
Ni59         O61   1.893       .  S
O60         Ni65   1.944       .  S
C62          O63   1.265       .  A
C62         C721   1.507       .  S
O67         Ni73   1.923       .  S
O67          C88   1.270       .  A
O68         Ni91   1.874       .  S
O68          C77   1.263       .  A
O69         Ni73   1.911       .  S
O69         Ni91   1.887       .  S
O69         Ni85   1.916       .  S
O69          H92   0.966       .  S
C70          O87   1.277       .  A
C70          O79   1.278       .  A
C70         C828   1.480       .  S
O71         Ni90   1.937       .  S
O71          C77   1.276       .  A
O72         Ni90   1.928       .  S
O72          C74   1.274       .  A
Ni73         O76   1.926       .  S
Ni73         O78   1.923       .  S
C74          O84   1.274       .  A
C74         C708   1.504       .  S
O75         Ni91   1.925       .  S
O75          C81   1.278       .  A
O76          C81   1.277       .  A
C77         C678   1.478       .  S
O78          C80   1.271       .  A
O79         Ni90   1.933       .  S
C80          O86   1.274       .  A
C80         C668   1.504       .  S
C81         C688   1.490       .  S
H82          O83   0.966       .  S
O83         Ni91   1.911       .  S
O83         Ni85   1.890       .  S
O83         Ni90   1.912       .  S
O84         Ni85   1.940       .  S
Ni85         O89   1.888       .  S
Ni85         O87   1.913       .  S
O86         Ni91   1.939       .  S
C88          O89   1.267       .  A
C88         C698   1.463       .  S
O93         Ni99   1.923       .  S
O93         C114   1.270       .  A
O94        Ni117   1.894       .  S
O94         C103   1.265       .  A
O95         Ni99   1.906       .  S
O95        Ni117   1.891       .  S
O95        Ni111   1.898       .  S
O95         H118   0.967       .  S
C96         O113   1.276       .  A
C96         O105   1.277       .  A
C96         C821   1.482       .  S
O97        Ni116   1.918       .  S
O97         C103   1.265       .  A
O98        Ni116   1.902       .  S
O98         C100   1.266       .  A
Ni99        O102   1.917       .  S
Ni99        O104   1.906       .  S
C100        O110   1.274       .  A
C100        C658   1.485       .  S
O101       Ni117   1.879       .  S
O101        C107   1.267       .  A
O102        C107   1.275       .  A
C103        C628   1.473       .  S
O104        C106   1.267       .  A
O105       Ni116   1.918       .  S
C106        O112   1.276       .  A
C106        C618   1.496       .  S
C107        C641   1.463       .  S
H108        O109   0.966       .  S
O109       Ni117   1.893       .  S
O109       Ni111   1.888       .  S
O109       Ni116   1.903       .  S
O110       Ni111   1.934       .  S
Ni111       O115   1.888       .  S
Ni111       O113   1.909       .  S
O112       Ni117   1.939       .  S
C114        O115   1.267       .  A
C114        C648   1.475       .  S
O119       Ni127   1.896   1_565  S
O119        C129   1.278   1_556  A
O120       Ni127   1.896       .  S
O120        C130   1.277       .  A
O121       Ni127   1.886   1_565  S
O121        C131   1.277       .  A
O122       Ni127   1.893       .  S
O122        C132   1.277       .  A
O123       Ni128   1.913       .  S
O123        C132   1.281       .  A
O124       Ni128   1.917   1_565  S
O124        C131   1.280       .  A
O125       Ni128   1.915       .  S
O125        C130   1.282       .  A
O126       Ni128   1.914   1_564  S
O126        C129   1.281       .  A
Ni127      Ni128   2.388       .  S
C129        C651   1.476       .  S
C130        C598   1.463       .  S
C131        C611   1.467       .  S
C132        C811   1.476   1_556  S
O133       Ni141   1.933   1_655  S
O133        C143   1.285   1_556  A
O134       Ni141   1.931       .  S
O134        C144   1.285       .  A
O135       Ni141   1.919   1_655  S
O135        C145   1.281       .  A
O136       Ni141   1.914       .  S
O136        C146   1.279   1_556  A
O137       Ni142   1.901   1_554  S
O137        C146   1.278       .  A
O138       Ni142   1.910   1_655  S
O138        C145   1.281       .  A
O139       Ni142   1.912       .  S
O139        C144   1.279       .  A
O140       Ni142   1.915   1_655  S
O140        C143   1.281   1_556  A
Ni141      Ni142   2.385       .  S
C143        C761   1.499       .  S
C144        C591   1.482       .  S
C145        C578   1.489       .  S
C146        C798   1.460       .  S
O147       Ni155   1.934   1_545  S
O147        C157   1.283       .  A
O148       Ni155   1.930       .  S
O148        C158   1.284   1_556  A
O149       Ni155   1.944   1_545  S
O149        C159   1.286   1_556  A
O150       Ni155   1.940       .  S
O150        C160   1.286       .  A
O151       Ni156   1.930       .  S
O151        C160   1.283       .  A
O152       Ni156   1.931   1_545  S
O152        C159   1.283   1_556  A
O153       Ni156   1.933       .  S
O153        C158   1.285   1_556  A
O154       Ni156   1.928   1_545  S
O154        C157   1.284       .  A
Ni155      Ni156   2.382       .  S
C157        C568   1.495       .  S
C158        C711   1.500       .  S
C159        C748   1.501       .  S
C160        C561   1.498       .  S
O161       Ni169   1.890       .  S
O161        C171   1.276       .  A
O162       Ni169   1.889   1_654  S
O162        C172   1.277       .  A
O163       Ni169   1.900   1_554  S
O163        C173   1.279       .  A
O164       Ni169   1.901   1_655  S
O164        C174   1.279       .  A
O165       Ni170   1.928   1_655  S
O165        C174   1.283       .  A
O166       Ni170   1.933   1_554  S
O166        C173   1.284       .  A
O167       Ni170   1.919   1_654  S
O167        C172   1.281       .  A
O168       Ni170   1.917       .  S
O168        C171   1.282       .  A
Ni169      Ni170   2.389       .  S
C171        C538   1.463       .  S
C172        C701   1.466       .  S
C173        C661   1.480       .  S
C174        C548   1.482       .  S
O175       Ni181   1.915       .  S
O175        C196   1.268       .  A
O176       Ni199   1.884       .  S
O176        C185   1.263       .  A
O177       Ni181   1.910       .  S
O177       Ni199   1.887       .  S
O177       Ni193   1.904       .  S
O177        H200   0.966       .  S
C178        O195   1.274       .  A
C178        O187   1.277       .  A
C178        C541   1.458       .  S
O179       Ni198   1.914       .  S
O179        C185   1.266       .  A
O180       Ni198   1.901       .  S
O180        C182   1.266       .  A
Ni181       O184   1.912       .  S
Ni181       O186   1.918       .  S
C182        O192   1.278       .  A
C182        C528   1.502       .  S
O183       Ni199   1.889       .  S
O183        C189   1.271       .  A
O184        C189   1.276       .  A
C185        C501   1.461       .  S
O186        C188   1.269       .  A
O187       Ni198   1.917       .  S
C188        O194   1.271       .  A
C188        C518   1.487       .  S
C189        C508   1.471       .  S
H190        O191   0.967       .  S
O191       Ni199   1.898       .  S
O191       Ni193   1.888       .  S
O191       Ni198   1.900       .  S
O192       Ni193   1.957       .  S
Ni193       O197   1.884       .  S
Ni193       O195   1.893       .  S
O194       Ni199   1.929       .  S
C196        O197   1.267       .  A
C196        C608   1.461       .  S
O201       Ni209   1.913   1_655  S
O201        C211   1.281       .  A
O202       Ni209   1.907   1_545  S
O202        C212   1.280       .  A
O203       Ni209   1.927   1_645  S
O203        C213   1.283       .  A
O204       Ni209   1.930       .  S
O204        C214   1.283       .  A
O205       Ni210   1.938       .  S
O205        C214   1.287       .  A
O206       Ni210   1.937   1_645  S
O206        C213   1.286       .  A
O207       Ni210   1.909   1_545  S
O207        C212   1.280       .  A
O208       Ni210   1.910   1_655  S
O208        C211   1.279       .  A
Ni209      Ni210   2.382       .  S
C211        C468   1.483       .  S
C212        C488   1.476       .  S
C213        C478   1.502       .  S
C214        C531   1.503       .  S
O215       Ni221   1.922       .  S
O215        C236   1.269       .  A
O216       Ni239   1.887       .  S
O216        C225   1.268       .  A
O217       Ni221   1.903       .  S
O217       Ni239   1.895       .  S
O217       Ni233   1.917       .  S
O217        H240   0.967       .  S
C218        O235   1.274       .  A
C218        O227   1.274       .  A
C218        C491   1.473       .  S
O219       Ni238   1.926       .  S
O219        C225   1.271       .  A
O220       Ni238   1.907       .  S
O220        C222   1.270       .  A
Ni221       O224   1.927       .  S
Ni221       O226   1.910       .  S
C222        O232   1.274       .  A
C222        C588   1.493       .  S
O223       Ni239   1.934       .  S
O223        C229   1.278       .  A
O224        C229   1.277       .  A
C225        C448   1.466       .  S
O226        C228   1.269       .  A
O227       Ni238   1.921       .  S
C228        O234   1.276       .  A
C228        C438   1.485       .  S
C229        C458   1.485       .  S
H230        O231   0.967       .  S
O231       Ni239   1.914       .  S
O231       Ni233   1.898       .  S
O231       Ni238   1.911       .  S
O232       Ni233   1.934       .  S
Ni233       O237   1.893       .  S
Ni233       O235   1.915       .  S
O234       Ni239   1.938       .  S
C236        O237   1.266       .  A
C236        C601   1.457       .  S
O241       Ni247   1.948       .  S
O241        C262   1.278       .  A
O242       Ni265   1.878       .  S
O242        C251   1.265       .  A
O243       Ni247   1.917       .  S
O243       Ni265   1.896       .  S
O243       Ni259   1.923       .  S
O243        H266   0.966       .  S
C244        O261   1.280       .  A
C244        O253   1.280       .  A
C244        C481   1.500       .  S
O245       Ni264   1.952       .  S
O245        C251   1.279       .  A
O246       Ni264   1.928       .  S
O246        C248   1.274       .  A
Ni247       O250   1.945       .  S
Ni247       O252   1.927       .  S
C248        O258   1.277       .  A
C248        C571   1.505       .  S
O249       Ni265   1.934       .  S
O249        C255   1.278       .  A
O250        C255   1.280       .  A
C251        C421   1.481       .  S
O252        C254   1.274       .  A
O253       Ni264   1.944       .  S
C254        O260   1.279       .  A
C254        C408   1.513       .  S
C255        C428   1.495       .  S
H256        O257   0.966       .  S
O257       Ni265   1.921       .  S
O257       Ni259   1.899       .  S
O257       Ni264   1.927       .  S
O258       Ni259   1.935       .  S
Ni259       O263   1.902       .  S
Ni259       O261   1.932       .  S
O260       Ni265   1.948       .  S
C262        O263   1.270       .  A
C262        C581   1.493       .  S
O267       Ni273   1.945       .  S
O267        C288   1.276       .  A
O268       Ni291   1.882       .  S
O268        C277   1.264       .  A
O269       Ni273   1.919       .  S
O269       Ni291   1.903       .  S
O269       Ni285   1.905       .  S
O269        H292   0.966       .  S
C270        O287   1.273       .  A
C270        O279   1.277       .  A
C270        C398   1.482       .  S
O271       Ni290   1.943       .  S
O271        C277   1.275       .  A
O272       Ni290   1.928       .  S
O272        C274   1.273       .  A
Ni273       O276   1.928       .  S
Ni273       O278   1.927       .  S
C274        O284   1.276       .  A
C274        C388   1.513       .  S
O275       Ni291   1.895       .  S
O275        C281   1.269       .  A
O276        C281   1.276       .  A
C277        C551   1.479       .  S
O278        C280   1.274       .  A
O279       Ni290   1.929       .  S
C280        O286   1.276       .  A
C280        C558   1.508       .  S
C281        C471   1.463       .  S
H282        O283   0.966       .  S
O283       Ni291   1.895       .  S
O283       Ni285   1.899       .  S
O283       Ni290   1.921       .  S
O284       Ni285   1.946       .  S
Ni285       O289   1.894       .  S
Ni285       O287   1.902       .  S
O286       Ni291   1.942       .  S
C288        O289   1.266       .  A
C288        C378   1.493       .  S
O293       Ni301   1.920       .  S
O293        C303   1.282       .  A
O294       Ni301   1.913       .  S
O294        C304   1.278       .  A
O295       Ni301   1.943       .  S
O295        C305   1.287       .  A
O296       Ni301   1.941       .  S
O296        C306   1.287       .  A
O297       Ni302   1.924       .  S
O297        C306   1.283       .  A
O298       Ni302   1.922       .  S
O298        C305   1.282       .  A
O299       Ni302   1.919       .  S
O299        C304   1.282       .  A
O300       Ni302   1.928       .  S
O300        C303   1.283       .  A
Ni301      Ni302   2.380       .  S
C303        C461   1.499       .  S
C304        C401   1.471       .  S
C305        C521   1.504       .  S
C306        C431   1.508       .  S
O307       Ni315   1.893       .  S
O307        C317   1.276       .  A
O308       Ni315   1.891       .  S
O308        C318   1.275       .  A
O309       Ni315   1.933       .  S
O309        C319   1.285       .  A
O310       Ni315   1.939       .  S
O310        C320   1.286       .  A
O311       Ni316   1.905       .  S
O311        C320   1.279       .  A
O312       Ni316   1.912       .  S
O312        C319   1.280       .  A
O313       Ni316   1.900       .  S
O313        C318   1.279       .  A
O314       Ni316   1.903       .  S
O314        C317   1.279       .  A
Ni315      Ni316   2.390       .  S
C317        C741   1.450       .  S
C318        C638   1.452       .  S
C319        C691   1.488       .  S
C320        C791   1.493       .  S
O321       Ni329   1.933       .  S
O321        C331   1.284       .  A
O322       Ni329   1.938       .  S
O322        C332   1.285       .  A
O323       Ni329   1.932       .  S
O323        C333   1.284       .  A
O324       Ni329   1.932       .  S
O324        C334   1.284       .  A
O325       Ni330   1.953       .  S
O325        C334   1.288       .  A
O326       Ni330   1.950       .  S
O326        C333   1.287       .  A
O327       Ni330   1.940       .  S
O327        C332   1.285       .  A
O328       Ni330   1.940       .  S
O328        C331   1.285       .  A
Ni329      Ni330   2.378       .  S
C331        C671   1.501       .  S
C332        C411   1.504       .  S
C333        C391   1.507       .  S
C334        C731   1.516       .  S
O335       Ni343   1.909       .  S
O335        C345   1.280       .  A
O336       Ni343   1.906       .  S
O336        C346   1.278       .  A
O337       Ni343   1.937       .  S
O337        C347   1.286       .  A
O338       Ni343   1.945       .  S
O338        C348   1.287       .  A
O339       Ni344   1.897       .  S
O339        C348   1.278       .  A
O340       Ni344   1.903       .  S
O340        C347   1.279       .  A
O341       Ni344   1.890       .  S
O341        C346   1.276       .  A
O342       Ni344   1.896       .  S
O342        C345   1.278       .  A
Ni343      Ni344   2.388       .  S
C345        C681   1.472       .  S
C346        C511   1.446       .  S
C347        C381   1.493       .  S
C348        C621   1.485       .  S
O349       Ni357   1.930       .  S
O349        C359   1.284       .  A
O350       Ni357   1.916       .  S
O350        C360   1.283       .  A
O351       Ni357   1.909       .  S
O351        C361   1.279       .  A
O352       Ni357   1.912       .  S
O352        C362   1.280       .  A
O353       Ni358   1.888       .  S
O353        C362   1.277       .  A
O354       Ni358   1.889       .  S
O354        C361   1.277       .  A
O355       Ni358   1.888       .  S
O355        C360   1.275       .  A
O356       Ni358   1.890       .  S
O356        C359   1.277       .  A
Ni357      Ni358   2.389       .  S
C359        C451   1.476       .  S
C360        C631   1.473       .  S
C361        C771   1.458       .  S
C362        C498   1.468       .  S
O363       Ni371   1.914       .  S
O363        C373   1.281       .  A
O364       Ni371   1.924       .  S
O364        C374   1.282       .  A
O365       Ni371   1.911       .  S
O365        C375   1.281       .  A
O366       Ni371   1.914       .  S
O366        C376   1.282       .  A
O367       Ni372   1.907       .  S
O367        C376   1.279       .  A
O368       Ni372   1.912       .  S
O368        C375   1.279       .  A
O369       Ni372   1.942       .  S
O369        C374   1.287       .  A
O370       Ni372   1.943       .  S
O370        C373   1.286       .  A
Ni371      Ni372   2.383       .  S
C373        C441   1.496       .  S
C374        C718   1.507       .  S
C375        C781   1.470       .  S
C376        C418   1.482       .  S
C377        C378   1.411       .  A
C377        C382   1.405       .  A
C377        F384   1.357       .  S
C378        C379   1.410       .  A
C379        C380   1.395       .  A
C379        F386   1.358       .  S
C380        C381   1.412       .  A
C380        F385   1.358       .  S
C381        C382   1.410       .  A
C382        F383   1.357       .  S
C387        C388   1.415       .  A
C387        C392   1.408       .  A
C387        F394   1.358       .  S
C388        C389   1.416       .  A
C389        C390   1.413       .  A
C389        F396   1.357       .  S
C390        C391   1.410       .  A
C390        F395   1.357       .  S
C391        C392   1.410       .  A
C392        F393   1.358       .  S
C397        C398   1.411       .  A
C397        C402   1.399       .  A
C397        F404   1.359       .  S
C398        C399   1.409       .  A
C399        C400   1.394       .  A
C399        F406   1.357       .  S
C400        C401   1.401       .  A
C400        F405   1.357       .  S
C401        C402   1.406       .  A
C402        F403   1.358       .  S
C407        C408   1.416       .  A
C407        C412   1.412       .  A
C407        F414   1.358       .  S
C408        C409   1.415       .  A
C409        C410   1.409       .  A
C409        F416   1.358       .  S
C410        C411   1.409       .  A
C410        F415   1.358       .  S
C411        C412   1.410       .  A
C412        F413   1.358       .  S
C417        C418   1.406       .  A
C417        C422   1.392       .  A
C417        F424   1.358       .  S
C418        C419   1.412       .  A
C419        C420   1.401       .  A
C419        F426   1.358       .  S
C420        C421   1.406       .  A
C420        F425   1.358       .  S
C421        C422   1.409       .  A
C422        F423   1.358       .  S
C427        C428   1.407       .  A
C427        C432   1.410       .  A
C427        F434   1.357       .  S
C428        C429   1.406       .  A
C429        C430   1.406       .  A
C429        F436   1.358       .  S
C430        C431   1.416       .  A
C430        F435   1.358       .  S
C431        C432   1.414       .  A
C432        F433   1.357       .  S
C437        C438   1.403       .  A
C437        C442   1.399       .  A
C437        F444   1.358       .  S
C438        C439   1.410       .  A
C439        C440   1.409       .  A
C439        F446   1.358       .  S
C440        C441   1.412       .  A
C440        F445   1.358       .  S
C441        C442   1.412       .  A
C442        F443   1.357       .  S
C447        C448   1.399       .  A
C447        C452   1.388       .  A
C447        F454   1.359       .  S
C448        C449   1.407       .  A
C449        C450   1.401       .  A
C449        F456   1.358       .  S
C450        C451   1.408       .  A
C450        F455   1.357       .  S
C451        C452   1.410       .  A
C452        F453   1.358       .  S
C457        C458   1.407       .  A
C457        C462   1.407       .  A
C457        F464   1.358       .  S
C458        C459   1.403       .  A
C459        C460   1.401       .  A
C459        F466   1.358       .  S
C460        C461   1.413       .  A
C460        F465   1.357       .  S
C461        C462   1.414       .  A
C462        F463   1.358       .  S
C467        C468   1.414       .  A
C467        C472   1.398       .  A
C467        F474   1.357       .  S
C468        C469   1.410       .  A
C469        C470   1.394       .  A
C469        F476   1.358       .  S
C470        C471   1.402       .  A
C470        F475   1.358       .  S
C471        C472   1.399       .  A
C472        F473   1.358       .  S
C477        C478   1.412       .  A
C477        C482   1.409       .  A
C477        F484   1.357       .  S
C478        C479   1.412       .  A
C479        C480   1.404       .  A
C479        F486   1.358       .  S
C480        C481   1.408       .  A
C480        F485   1.356       .  S
C481        C482   1.411       .  A
C482        F483   1.357       .  S
C487        C488   1.408       .  A
C487        C492   1.396       .  A
C487        F494   1.358       .  S
C488        C489   1.408       .  A
C489        C490   1.396       .  A
C489        F496   1.359       .  S
C490        C491   1.405       .  A
C490        F495   1.358       .  S
C491        C492   1.405       .  A
C492        F493   1.358       .  S
C497        C498   1.409       .  A
C497        C502   1.386       .  A
C497        F504   1.359       .  S
C498        C499   1.405       .  A
C499        C500   1.393       .  A
C499        F506   1.358       .  S
C500        C501   1.407       .  A
C500        F505   1.358       .  S
C501        C502   1.401       .  A
C502        F503   1.358       .  S
C507        C508   1.411       .  A
C507        C512   1.391       .  A
C507        F514   1.358       .  S
C508        C509   1.413       .  A
C509        C510   1.386       .  A
C509        F516   1.358       .  S
C510        C511   1.396       .  A
C510        F515   1.359       .  S
C511        C512   1.399       .  A
C512        F513   1.358       .  S
C517        C518   1.405       .  A
C517        C522   1.407       .  A
C517        F524   1.358       .  S
C518        C519   1.406       .  A
C519        C520   1.404       .  A
C519        F526   1.359       .  S
C520        C521   1.415       .  A
C520        F525   1.358       .  S
C521        C522   1.413       .  A
C522        F523   1.357       .  S
C527        C528   1.413       .  A
C527        C532   1.404       .  A
C527        F534   1.358       .  S
C528        C529   1.410       .  A
C529        C530   1.410       .  A
C529        F536   1.358       .  S
C530        C531   1.414       .  A
C530        F535   1.358       .  S
C531        C532   1.408       .  A
C532        F533   1.358       .  S
C537        C538   1.405       .  A
C537        C542   1.394       .  A
C537        F544   1.358       .  S
C538        C539   1.406       .  A
C539        C540   1.389       .  A
C539        F546   1.358       .  S
C540        C541   1.402       .  A
C540        F545   1.359       .  S
C541        C542   1.404       .  A
C542        F543   1.358       .  S
C547        C548   1.408       .  A
C547        C552   1.390       .  A
C547        F554   1.358       .  S
C548        C549   1.409       .  A
C549        C550   1.404       .  A
C549        F556   1.357       .  S
C550        C551   1.408       .  A
C550        F555   1.358       .  S
C551        C552   1.406       .  A
C552        F553   1.358       .  S
C557        C558   1.414       .  A
C557        C562   1.409       .  A
C557        F564   1.357       .  S
C558        C559   1.416       .  A
C559        C560   1.408       .  A
C559        F566   1.358       .  S
C560        C561   1.408       .  A
C560        F565   1.358       .  S
C561        C562   1.408       .  A
C562        F563   1.358       .  S
C567        C568   1.411       .  A
C567        C572   1.412       .  A
C567        F574   1.358       .  S
C568        C569   1.404       .  A
C569        C570   1.400       .  A
C569        F576   1.358       .  S
C570        C571   1.413       .  A
C570        F575   1.357       .  S
C571        C572   1.416       .  A
C572        F573   1.358       .  S
C577        C578   1.408       .  A
C577        C582   1.396       .  A
C577        F584   1.358       .  S
C578        C579   1.411       .  A
C579        C580   1.403       .  A
C579        F586   1.358       .  S
C580        C581   1.411       .  A
C580        F585   1.357       .  S
C581        C582   1.409       .  A
C582        F583   1.355       .  S
C587        C588   1.411       .  A
C587        C592   1.401       .  A
C587        F594   1.358       .  S
C588        C589   1.413       .  A
C589        C590   1.400       .  A
C589        F596   1.358       .  S
C590        C591   1.404       .  A
C590        F595   1.358       .  S
C591        C592   1.407       .  A
C592        F593   1.358       .  S
C597        C598   1.408       .  A
C597        C602   1.397       .  A
C597        F604   1.359       .  S
C598        C599   1.403       .  A
C599        C600   1.390       .  A
C599        F606   1.358       .  S
C600        C601   1.401       .  A
C600        F605   1.358       .  S
C601        C602   1.403       .  A
C602        F603   1.359       .  S
C607        C608   1.399       .  A
C607        C612   1.384       .  A
C607        F614   1.358       .  S
C608        C609   1.408       .  A
C609        C610   1.398       .  A
C609        F616   1.358       .  S
C610        C611   1.406       .  A
C610        F615   1.358       .  S
C611        C612   1.407       .  A
C612        F613   1.358       .  S
C617        C618   1.408       .  A
C617        C622   1.395       .  A
C617        F624   1.358       .  S
C618        C619   1.418       .  A
C619        C620   1.408       .  A
C619        F626   1.358       .  S
C620        C621   1.405       .  A
C620        F625   1.358       .  S
C621        C622   1.407       .  A
C622        F623   1.358       .  S
C627        C628   1.411       .  A
C627        C632   1.392       .  A
C627        F634   1.358       .  S
C628        C629   1.404       .  A
C629        C630   1.390       .  A
C629        F636   1.358       .  S
C630        C631   1.411       .  A
C630        F635   1.358       .  S
C631        C632   1.405       .  A
C632        F633   1.358       .  S
C637        C638   1.403       .  A
C637        C642   1.388       .  A
C637        F644   1.358       .  S
C638        C639   1.400       .  A
C639        C640   1.386       .  A
C639        F646   1.359       .  S
C640        C641   1.410       .  A
C640        F645   1.358       .  S
C641        C642   1.406       .  A
C642        F643   1.358       .  S
C647        C648   1.406       .  A
C647        C652   1.389       .  A
C647        F654   1.358       .  S
C648        C649   1.411       .  A
C649        C650   1.394       .  A
C649        F656   1.358       .  S
C650        C651   1.407       .  A
C650        F655   1.358       .  S
C651        C652   1.409       .  A
C652        F653   1.358       .  S
C657        C658   1.404       .  A
C657        C662   1.395       .  A
C657        F664   1.357       .  S
C658        C659   1.414       .  A
C659        C660   1.405       .  A
C659        F666   1.358       .  S
C660        C661   1.406       .  A
C660        F665   1.358       .  S
C661        C662   1.407       .  A
C662        F663   1.358       .  S
C667        C668   1.412       .  A
C667        C672   1.409       .  A
C667        F674   1.358       .  S
C668        C669   1.412       .  A
C669        C670   1.407       .  A
C669        F676   1.356       .  S
C670        C671   1.409       .  A
C670        F675   1.358       .  S
C671        C672   1.410       .  A
C672        F673   1.357       .  S
C677        C678   1.407       .  A
C677        C682   1.397       .  A
C677        F684   1.357       .  S
C678        C679   1.411       .  A
C679        C680   1.387       .  A
C679        F686   1.357       .  S
C680        C681   1.405       .  A
C680        F685   1.359       .  S
C681        C682   1.408       .  A
C682        F683   1.357       .  S
C687        C688   1.408       .  A
C687        C692   1.398       .  A
C687        F694   1.358       .  S
C688        C689   1.412       .  A
C689        C690   1.405       .  A
C689        F696   1.358       .  S
C690        C691   1.408       .  A
C690        F695   1.358       .  S
C691        C692   1.409       .  A
C692        F693   1.358       .  S
C697        C698   1.407       .  A
C697        C702   1.399       .  A
C697        F704   1.358       .  S
C698        C699   1.400       .  A
C699        C700   1.387       .  A
C699        F706   1.357       .  S
C700        C701   1.407       .  A
C700        F705   1.359       .  S
C701        C702   1.405       .  A
C702        F703   1.358       .  S
C707        C708   1.410       .  A
C707        C712   1.407       .  A
C707        F714   1.357       .  S
C708        C709   1.414       .  A
C709        C710   1.407       .  A
C709        F716   1.358       .  S
C710        C711   1.409       .  A
C710        F715   1.358       .  S
C711        C712   1.412       .  A
C712        F713   1.358       .  S
C717        C718   1.412       .  A
C717        C722   1.408       .  A
C717        F724   1.357       .  S
C718        C719   1.413       .  A
C719        C720   1.405       .  A
C719        F726   1.358       .  S
C720        C721   1.415       .  A
C720        F725   1.358       .  S
C721        C722   1.411       .  A
C722        F723   1.357       .  S
C727        C728   1.410       .  A
C727        C732   1.415       .  A
C727        F734   1.357       .  S
C728        C729   1.411       .  A
C729        C730   1.408       .  A
C729        F736   1.358       .  S
C730        C731   1.415       .  A
C730        F735   1.358       .  S
C731        C732   1.416       .  A
C732        F733   1.357       .  S
C737        C738   1.411       .  A
C737        C742   1.392       .  A
C737        F744   1.358       .  S
C738        C739   1.411       .  A
C739        C740   1.388       .  A
C739        F746   1.358       .  S
C740        C741   1.399       .  A
C740        F745   1.359       .  S
C741        C742   1.399       .  A
C742        F743   1.358       .  S
C747        C748   1.409       .  A
C747        C752   1.410       .  A
C747        F754   1.357       .  S
C748        C749   1.408       .  A
C749        C750   1.408       .  A
C749        F756   1.358       .  S
C750        C751   1.418       .  A
C750        F755   1.358       .  S
C751        C752   1.415       .  A
C752        F753   1.357       .  S
C757        C758   1.409       .  A
C757        C762   1.398       .  A
C757        F764   1.356       .  S
C758        C759   1.415       .  A
C759        C760   1.408       .  A
C759        F766   1.358       .  S
C760        C761   1.411       .  A
C760        F765   1.358       .  S
C761        C762   1.411       .  A
C762        F763   1.358       .  S
C767        C768   1.405       .  A
C767        C772   1.396       .  A
C767        F774   1.358       .  S
C768        C769   1.403       .  A
C769        C770   1.387       .  A
C769        F776   1.356       .  S
C770        C771   1.402       .  A
C770        F775   1.359       .  S
C771        C772   1.406       .  A
C772        F773   1.358       .  S
C777        C778   1.414       .  A
C777        C782   1.393       .  A
C777        F784   1.357       .  S
C778        C779   1.410       .  A
C779        C780   1.399       .  A
C779        F786   1.357       .  S
C780        C781   1.405       .  A
C780        F785   1.358       .  S
C781        C782   1.401       .  A
C782        F783   1.359       .  S
C787        C788   1.402       .  A
C787        C792   1.399       .  A
C787        F794   1.358       .  S
C788        C789   1.410       .  A
C789        C790   1.406       .  A
C789        F796   1.358       .  S
C790        C791   1.410       .  A
C790        F795   1.358       .  S
C791        C792   1.414       .  A
C792        F793   1.358       .  S
C797        C798   1.399       .  A
C797        C802   1.390       .  A
C797        F804   1.359       .  S
C798        C799   1.402       .  A
C799        C800   1.397       .  A
C799        F806   1.358       .  S
C800        C801   1.411       .  A
C800        F805   1.358       .  S
C801        C802   1.413       .  A
C802        F803   1.358       .  S
C807        C808   1.411       .  A
C807        C812   1.397       .  A
C807        F814   1.358       .  S
C808        C809   1.407       .  A
C809        C810   1.389       .  A
C809        F816   1.358       .  S
C810        C811   1.409       .  A
C810        F815   1.358       .  S
C811        C812   1.407       .  A
C812        F813   1.358       .  S
C817        C818   1.404       .  A
C817        C822   1.398       .  A
C817        F824   1.358       .  S
C818        C819   1.405       .  A
C819        C820   1.394       .  A
C819        F826   1.358       .  S
C820        C821   1.409       .  A
C820        F825   1.357       .  S
C821        C822   1.411       .  A
C822        F823   1.358       .  S
C827        C828   1.409       .  A
C827        C832   1.402       .  A
C827        F834   1.358       .  S
C828        C829   1.405       .  A
C829        C830   1.395       .  A
C829        F836   1.357       .  S
C830        C831   1.407       .  A
C830        F835   1.358       .  S
C831        C832   1.408       .  A
C832        F833   1.358       .  S
C837        C838   1.410       .  A
C837        C842   1.399       .  A
C837        F844   1.358       .  S
C838        C839   1.409       .  A
C839        C840   1.391       .  A
C839        F846   1.357       .  S
C840        C841   1.401       .  A
C840        F845   1.358       .  S
C841        C842   1.404       .  A
C842        F843   1.358       .  S
C847        C848   1.400       .  A
C847        C852   1.394       .  A
C847        F854   1.358       .  S
C848        C849   1.409       .  A
C849        C850   1.405       .  A
C849        F856   1.358       .  S
C850        C851   1.412       .  A
C850        F855   1.358       .  S
C851        C852   1.414       .  A
C852        F853   1.358       .  S
