geometry optimzed in LAMMPS
_audit_creation_date              2020-12-01 
_audit_creation_method            'lammps2cif' 
_symmetry_space_group_name_H-M    'P1' 
_symmetry_Int_Tables_number       1 
_symmetry_cell_setting            triclinic 
loop_ 
_symmetry_equiv_pos_as_xyz 
  x,y,z 
_cell_length_a                    30.04225199 
_cell_length_b                    30.76089344283013 
_cell_length_c                    30.45592511535292 
_cell_angle_alpha                 89.8347374718929 
_cell_angle_beta                  89.45902561438491 
_cell_angle_gamma                 89.98116081537114 
loop_ 
_atom_site_label 
_atom_site_type_symbol 
_atom_site_fract_x 
_atom_site_fract_y 
_atom_site_fract_z 
_atom_site_charge 
C1          C  0.40540987  0.20215538  0.40160125     0.81100
N2          N  0.44299806  0.19647655  0.37609486    -0.77200
C3          C  0.44645957  0.16149232  0.34829670     0.83600
N4          N  0.41211980  0.13266778  0.34613171    -0.77100
C5          C  0.37450728  0.13772547  0.37074386     0.83700
N6          N  0.37150084  0.17239576  0.39869139    -0.78800
C7          C  0.41371808  0.29423234  0.11134148     0.81100
N8          N  0.38232988  0.32649496  0.11010377    -0.77200
C9          C  0.38565279  0.36314113  0.13499719     0.83600
N10         N  0.42153880  0.36736022  0.16200391    -0.77100
C11         C  0.45364433  0.33572265  0.16482720     0.83700
N12         N  0.44960523  0.29894683  0.13906517    -0.78800
C13         C  0.17284480  0.44417504  0.40588479     0.81100
N14         N  0.17358356  0.41122640  0.43702500    -0.77200
C15         C  0.14470077  0.37641468  0.43419808     0.83600
N16         N  0.11554393  0.37538637  0.40031180    -0.77100
C17         C  0.11399866  0.40711265  0.36927997     0.83700
N18         N  0.14295304  0.44128292  0.37198542    -0.78800
C19         C  0.18494762  0.08152583  0.15608232     0.81100
N20         N  0.18412774  0.11473607  0.12586973    -0.77200
C21         C  0.15207329  0.14620811  0.12763888     0.83600
N22         N  0.12016559  0.14364975  0.15947348    -0.77100
C23         C  0.11955797  0.11094273  0.18982276     0.83700
N24         N  0.15227689  0.07973225  0.18805193    -0.78800
O25         O  0.04682842  0.13147684  0.21462131    -0.70900
O26         O  0.48181207  0.16749823  0.27788288    -0.71100
O27         O  0.55925712  0.19359236  0.23947165    -0.70900
O28         O  0.48306732  0.09769721  0.22683933    -0.71000
O29         O  0.01069235  0.05889138  0.29843969    -0.70900
O30         O  0.07526279  0.16190745  0.31554426    -0.70900
O31         O  0.51826105  0.13135763  0.32719992    -0.70900
O32         O  0.08570463  0.09504381  0.26180780    -0.71100
V33         V  0.52193714  0.14522682  0.23425360     1.35200
V34         V  0.04181221  0.11118830  0.30615928     1.35200
C35         C  0.08242262  0.11119820  0.22340500     0.78400
C36         C  0.48492214  0.15491573  0.31733644     0.78400
C37         C  0.06483089  0.19498576  0.29380453     0.78300
C38         C  0.98178817  0.05623442  0.26891812     0.78300
O39         O  0.05051480  0.28560339  0.50282058    -0.70900
O40         O  0.16305978  0.23371505  0.49329640    -0.71100
O41         O  0.16451759  0.17536101  0.05446960    -0.70900
O42         O  0.12263617  0.30409760  0.45640051    -0.71000
O43         O  0.15091903  0.34369615  0.50787051    -0.70900
O44         O  0.12410298  0.21387352  0.09921395    -0.70900
O45         O  0.16393382  0.28506073  0.06291919    -0.70900
O46         O  0.05873919  0.22214476  0.04321178    -0.71100
V47         V  0.10712318  0.26046429  0.49940114     1.35200
V48         V  0.11161833  0.25305767  0.05176957     1.35200
C49         C  0.06081603  0.18564810  0.02452541     0.78400
C50         C  0.19721411  0.27688536  0.03901544     0.78400
C51         C  0.14786455  0.18031325  0.09259770     0.78300
C52         C  0.14085341  0.33972187  0.46756138     0.78300
O53         O  0.24905176  0.99301731  0.06122186    -0.70900
O54         O  0.32930397  0.01300143  0.15367129    -0.71100
O55         O  0.35954328  0.43795717  0.13988517    -0.70900
O56         O  0.25203509  0.05088826  0.12476087    -0.71000
O57         O  0.21350507  0.00793522  0.16702393    -0.70900
O58         O  0.31053976  0.38978290  0.12135436    -0.70900
O59         O  0.25496887  0.42637655  0.17976252    -0.70900
O60         O  0.27619373  0.44117678  0.05961505    -0.71100
V61         V  0.28841766  0.00222631  0.10780112     1.35200
V62         V  0.26615625  0.43551505  0.11979575     1.35200
C63         C  0.30820727  0.46405997  0.04622172     0.78400
C64         C  0.27632654  0.44920489  0.20625708     0.78400
C65         C  0.35046281  0.39836497  0.13212198     0.78300
C66         C  0.21866079  0.04551491  0.15006660     0.78300
O67         O  0.04314761  0.38506745  0.34224698    -0.70900
O68         O  0.48395197  0.33447361  0.23861017    -0.71100
O69         O  0.55830099  0.30597349  0.28168041    -0.70900
O70         O  0.48783145  0.40684916  0.28533053    -0.71000
O71         O  0.02004780  0.44285168  0.24590368    -0.70900
O72         O  0.08055392  0.33639800  0.24960654    -0.70900
O73         O  0.52731930  0.36120630  0.18808944    -0.70900
O74         O  0.08920591  0.41038253  0.29315377    -0.71100
V75         V  0.52414658  0.35685915  0.28242401     1.35200
V76         V  0.04900317  0.38927266  0.24859964     1.35200
C77         C  0.08055204  0.40215311  0.33329751     0.78400
C78         C  0.49080134  0.34219416  0.19805477     0.78400
C79         C  0.59364116  0.30469763  0.25915130     0.78300
C80         C  0.49531935  0.43639280  0.25766322     0.78300
O81         O  0.24481373  0.47819892  0.42273021    -0.70900
O82         O  0.34473439  0.06799973  0.39028682    -0.71100
O83         O  0.28722257  0.55281580  0.45110740    -0.70900
O84         O  0.30000021  0.47807692  0.35548449    -0.71000
O85         O  0.29230507  0.03645401  0.29632075    -0.70900
O86         O  0.23098397  0.08650843  0.39111032    -0.70900
O87         O  0.30454529  0.10680466  0.34611984    -0.70900
O88         O  0.19965883  0.51537306  0.38217360    -0.71100
V89         V  0.29258808  0.51626013  0.40266016     1.35200
V90         V  0.26195725  0.05959457  0.34473464     1.35200
C91         C  0.20668560  0.48127078  0.40496374     0.78400
C92         C  0.33936798  0.10320671  0.36936035     0.78400
C93         C  0.26247513  0.58571498  0.44905063     0.78300
C94         C  0.27841440  0.48592942  0.32138054     0.78300
O95         O  0.41322523  0.23459805  0.47350475    -0.70900
O96         O  0.38832402  0.22116525  0.09068134    -0.71100
O97         O  0.31078259  0.22025605  0.05103823    -0.70900
O98         O  0.41194142  0.14737434  0.04238631    -0.71000
O99         O  0.41568762  0.35058762  0.45940880    -0.70900
O100        O  0.31294117  0.28205726  0.47876582    -0.70900
O101        O  0.41486731  0.26239035  0.03889580    -0.70900
O102        O  0.38184504  0.27473948  0.42395801    -0.71100
V103        V  0.36160556  0.18456245  0.04570720     1.35200
V104        V  0.36468627  0.31534693  0.46973270     1.35200
C105        C  0.40113548  0.23920585  0.43392091     0.78400
C106        C  0.40788497  0.25648470  0.07966400     0.78400
C107        C  0.31297574  0.25222669  0.50725413     0.78300
C108        C  0.44995190  0.34182975  0.48125453     0.78300
C109        C  0.31717440  0.46487031  0.00117034    -0.12400
C110        C  0.26300606  0.61449915  0.48480941    -0.13900
C111        C  0.27247415  0.44298936  0.25138537    -0.12400
C112        C  0.27606967  0.45544845  0.28774065    -0.13900
C113        C  0.02551785  0.15615436  0.03165805    -0.12400
C114        C  0.47631579  0.12702421  0.00283392    -0.13900
C115        C  0.23864163  0.29696558  0.04452387    -0.12400
C116        C  0.27640694  0.28667864  0.03928585    -0.13900
C117        C  0.96298991  0.01510520  0.26028887    -0.12400
C118        C  0.46694742  0.47249096  0.25290315    -0.13900
C119        C  0.09102859  0.23264983  0.29361741    -0.12400
C120        C  0.62050336  0.26725552  0.26238272    -0.13900
C121        C  0.33482432  0.12110359  0.92428343     0.81100
N122        N  0.36430963  0.12513024  0.89038372    -0.77200
C123        C  0.36444371  0.09842101  0.85503691     0.83600
N124        N  0.33312617  0.06587804  0.85325330    -0.77100
C125        C  0.30232968  0.05995450  0.88675242     0.83700
N126        N  0.30365670  0.08792129  0.92263855    -0.78800
C127        C  0.35391123  0.38779338  0.58818334     0.81100
N128        N  0.32176330  0.41971830  0.58762593    -0.77200
C129        C  0.31802796  0.44938294  0.62153910     0.83600
N130        N  0.34723475  0.44618296  0.65635654    -0.77100
C131        C  0.37975215  0.41454270  0.65678970     0.83700
N132        N  0.38214741  0.38629090  0.62268090    -0.78800
C133        C  0.13988276  0.37801819  0.89185042     0.81100
N134        N  0.14167671  0.34713122  0.92420584    -0.77200
C135        C  0.10655859  0.31927146  0.93136754     0.83600
N136        N  0.06938611  0.32279459  0.90597599    -0.77100
C137        C  0.06737457  0.35364111  0.87370296     0.83700
N138        N  0.10262533  0.38074776  0.86701664    -0.78800
C139        C  0.12423102  0.11546176  0.63694114     0.81100
N140        N  0.12382745  0.15070256  0.60958021    -0.77200
C141        C  0.09282879  0.18302455  0.61371831     0.83600
N142        N  0.06122899  0.17970600  0.64675394    -0.77100
C143        C  0.06075939  0.14416121  0.67463505     0.83700
N144        N  0.09258259  0.11254176  0.66931437    -0.78800
O145        O  0.98859911  0.12210262  0.70483649    -0.70900
O146        O  0.39405962  0.09492057  0.77979409    -0.71100
O147        O  0.39837266  0.16511320  0.72726134    -0.70900
O148        O  0.47022048  0.06581788  0.74112885    -0.71000
O149        O  0.03008929  0.07403996  0.79958281    -0.70900
O150        O  0.96890156  0.18063394  0.79943248    -0.70900
O151        O  0.43244493  0.13103419  0.82733726    -0.70900
O152        O  0.03725751  0.14570584  0.75118741    -0.71100
V153        V  0.43519905  0.11566698  0.73492991     1.35200
V154        V  0.99830577  0.12707549  0.79854168     1.35200
C155        C  0.02680363  0.13866855  0.71146588     0.78400
C156        C  0.39855304  0.10760048  0.81917715     0.78400
C157        C  0.93264649  0.18476909  0.77947757     0.78300
C158        C  0.01783574  0.04488351  0.77350592     0.78300
O159        O  0.09484950  0.17564759  0.00254281    -0.70900
O160        O  0.19557471  0.24659230  0.01141905    -0.71100
O161        O  0.09095525  0.21531651  0.54089295    -0.70900
O162        O  0.12665005  0.24837825  0.95891057    -0.71000
O163        O  0.09803788  0.29377470  0.00580014    -0.70900
O164        O  0.10908062  0.25867104  0.59378529    -0.70900
O165        O  0.18478960  0.27183126  0.54928916    -0.70900
O166        O  0.07504006  0.33084004  0.55182288    -0.71100
V167        V  0.14469395  0.21246597  0.00745201     1.35200
V168        V  0.12954608  0.30036019  0.54982215     1.35200
C169        C  0.04494179  0.31893124  0.52611111     0.78400
C170        C  0.19221321  0.24282046  0.52106382     0.78400
C171        C  0.09583350  0.22117082  0.58190990     0.78300
C172        C  0.10948274  0.28537459  0.96653512     0.78300
O173        O  0.25489173  0.08742765  0.57441430    -0.70900
O174        O  0.24464423  0.02293195  0.67916505    -0.71100
O175        O  0.28393188  0.51889237  0.64399075    -0.70900
O176        O  0.20046173  0.09192558  0.64251304    -0.71000
O177        O  0.15464519  0.04539734  0.61435406    -0.70900
O178        O  0.24712693  0.48055259  0.59709992    -0.70900
O179        O  0.16988929  0.49511853  0.64341527    -0.70900
O180        O  0.22815608  0.55422118  0.55119717    -0.71100
V181        V  0.24899225  0.05424093  0.62644916     1.35200
V182        V  0.20076786  0.52468152  0.59784763     1.35200
C183        C  0.25295613  0.58629383  0.55900708     0.78400
C184        C  0.17739034  0.50704576  0.68213379     0.78400
C185        C  0.28161475  0.48445332  0.62086637     0.78300
C186        C  0.16087567  0.08228094  0.63217180     0.78300
O187        O  0.99172332  0.37081864  0.85330892    -0.70900
O188        O  0.40449357  0.41554235  0.73396583    -0.71100
O189        O  0.40508963  0.34243641  0.78168792    -0.70900
O190        O  0.47978679  0.44092495  0.77774001    -0.71000
O191        O  0.01948711  0.41197621  0.74817928    -0.70900
O192        O  0.96661096  0.30346009  0.77008854    -0.70900
O193        O  0.44775696  0.38574810  0.68525315    -0.70900
O194        O  0.03690620  0.34725551  0.80258112    -0.71100
V195        V  0.44339937  0.39124881  0.77878496     1.35200
V196        V  0.99217539  0.35801417  0.76015934     1.35200
C197        C  0.02981084  0.35609712  0.84252253     0.78400
C198        C  0.41224361  0.40667358  0.69378310     0.78400
C199        C  0.41201644  0.31209825  0.75480348     0.78300
C200        C  0.51466722  0.44083739  0.75442992     0.78300
O201        O  0.21089889  0.40373920  0.86233969    -0.70900
O202        O  0.27909971  0.98294030  0.88614474    -0.71100
O203        O  0.28568132  0.44223405  0.89438938    -0.70900
O204        O  0.21555934  0.45843154  0.79473008    -0.71000
O205        O  0.20263469  0.97882632  0.80730264    -0.70900
O206        O  0.16499708  0.98552284  0.92419269    -0.70900
O207        O  0.22670322  0.03006545  0.87559114    -0.70900
O208        O  0.16928468  0.44995428  0.89747338    -0.71100
V209        V  0.24962093  0.45161866  0.84545426     1.35200
V210        V  0.18554316  0.98170642  0.86608821     1.35200
C211        C  0.17573761  0.41131004  0.88478954     0.78400
C212        C  0.26781180  0.02288953  0.88329209     0.78400
C213        C  0.27758606  0.46410052  0.92817115     0.78300
C214        C  0.18130951  0.48190289  0.79587696     0.78300
O215        O  0.33381683  0.14645594  0.00214413    -0.70900
O216        O  0.38391086  0.32025542  0.56113835    -0.71100
O217        O  0.34674506  0.24604516  0.53032332    -0.70900
O218        O  0.45053938  0.30847334  0.50521479    -0.71000
O219        O  0.43779346  0.19005517  0.99108787    -0.70900
O220        O  0.33774182  0.26228285  0.99973412    -0.70900
O221        O  0.34559821  0.35716387  0.51394709    -0.70900
O222        O  0.36047459  0.18957184  0.95208064    -0.71100
V223        V  0.39803201  0.27821365  0.51650225     1.35200
V224        V  0.38716045  0.22499290  0.99647985     1.35200
C225        C  0.34109782  0.15390240  0.96142987     0.78400
C226        C  0.36042988  0.35368110  0.55280884     0.78400
C227        C  0.30967006  0.25552169  0.02973106     0.78300
C228        C  0.44037181  0.15526397  0.01273990     0.78300
C229        C  0.26402151  0.61395256  0.52371526    -0.12400
C230        C  0.30632742  0.46286023  0.96401763    -0.13900
C231        C  0.15403723  0.49033804  0.71882712    -0.12400
C232        C  0.15540124  0.48479337  0.75748606    -0.13900
C233        C  0.00396578  0.34085009  0.52362365    -0.12400
C234        C  0.48834854  0.36835207  0.48184943    -0.13900
C235        C  0.23487858  0.22451933  0.51830790    -0.12400
C236        C  0.27396843  0.22808608  0.51447188    -0.13900
C237        C  0.04188132  0.00601975  0.76725389    -0.12400
C238        C  0.54209106  0.47784270  0.75410283    -0.13900
C239        C  0.90849077  0.22344298  0.78561125    -0.12400
C240        C  0.38392030  0.27538445  0.75210051    -0.13900
C241        C  0.40244006  0.68892361  0.38321950     0.81100
N242        N  0.43462056  0.68560449  0.35107233    -0.77200
C243        C  0.43476973  0.65099937  0.32260598     0.83600
N244        N  0.40230945  0.61979439  0.32662777    -0.77100
C245        C  0.37006708  0.62243866  0.35845296     0.83700
N246        N  0.37062929  0.65712367  0.38645299    -0.78800
C247        C  0.38916371  0.82122181  0.06437367     0.81100
N248        N  0.35513216  0.85105164  0.06825811    -0.77200
C249        C  0.35674436  0.88363294  0.09888838     0.83600
N250        N  0.39272984  0.88612317  0.12560165    -0.77100
C251        C  0.42717089  0.85744443  0.12262371     0.83700
N252        N  0.42523117  0.82477281  0.09185388    -0.78800
C253        C  0.18742064  0.94308450  0.36751352     0.81100
N254        N  0.18332815  0.91562097  0.40348831    -0.77200
C255        C  0.15101935  0.88380545  0.40476792     0.83600
N256        N  0.12339669  0.88020793  0.36992467    -0.77100
C257        C  0.12638014  0.90656396  0.33423351     0.83700
N258        N  0.15858615  0.93808539  0.33298487    -0.78800
C259        C  0.19469017  0.55670787  0.11795182     0.81100
N260        N  0.19273919  0.58529006  0.08258807    -0.77200
C261        C  0.16132778  0.61817267  0.08157652     0.83600
N262        N  0.13208638  0.62133466  0.11578666    -0.77100
C263        C  0.13258482  0.59390209  0.15084648     0.83700
N264        N  0.16435247  0.56168999  0.15198013    -0.78800
O265        O  0.06333736  0.62306085  0.17811369    -0.70900
O266        O  0.45864188  0.64891448  0.24685448    -0.71100
O267        O  0.52523918  0.68552347  0.19667424    -0.70900
O268        O  0.47157726  0.57518126  0.20452325    -0.71000
O269        O  0.03195405  0.56870186  0.27643938    -0.70900
O270        O  0.10325888  0.66913516  0.26864645    -0.70900
O271        O  0.50917196  0.63445783  0.29521001    -0.70900
O272        O  0.10522034  0.59321447  0.22735330    -0.71100
V273        V  0.49935966  0.63018990  0.20164229     1.35200
V274        V  0.06661571  0.61923773  0.27173713     1.35200
C275        C  0.09875967  0.60233819  0.18710546     0.78400
C276        C  0.46946813  0.64613881  0.28693599     0.78400
C277        C  0.09247530  0.69854647  0.24201970     0.78300
C278        C  0.99828527  0.56452731  0.25246149     0.78300
O279        O  0.05248103  0.81475846  0.49056238    -0.70900
O280        O  0.15063489  0.74269044  0.46929460    -0.71100
O281        O  0.16234600  0.64304389  0.00379210    -0.70900
O282        O  0.12029205  0.81806344  0.43476840    -0.71000
O283        O  0.15592601  0.85753540  0.48165590    -0.70900
O284        O  0.13634806  0.68713534  0.05310592    -0.70900
O285        O  0.16216430  0.75889461  0.00413327    -0.70900
O286        O  0.05963229  0.69002957  0.01282761    -0.71100
V287        V  0.10202347  0.77955047  0.48109575     1.35200
V288        V  0.11158787  0.72312696  0.00768778     1.35200
C289        C  0.05600323  0.65528826  0.99145387     0.78400
C290        C  0.18947055  0.75129341  0.97366992     0.78400
C291        C  0.15500829  0.65097780  0.04432268     0.78300
C292        C  0.14321423  0.85190930  0.44222749     0.78300
O293        O  0.33008672  0.48655445  0.07274839    -0.70900
O294        O  0.30200617  0.47865171  0.19254277    -0.71100
O295        O  0.32627621  0.95538812  0.08868000    -0.70900
O296        O  0.27116853  0.52903290  0.12586353    -0.71000
O297        O  0.21993939  0.48025288  0.11778779    -0.70900
O298        O  0.28728016  0.91134471  0.12937752    -0.70900
O299        O  0.29001189  0.96857260  0.19405536    -0.70900
O300        O  0.20980706  0.94983734  0.10312834    -0.71100
V301        V  0.31453621  0.48232670  0.13256150     1.35200
V302        V  0.25102976  0.96027900  0.14760949     1.35200
C303        C  0.21485235  0.97000678  0.06767061     0.78400
C304        C  0.32365980  0.99236571  0.18913224     0.78400
C305        C  0.32082435  0.91744201  0.10424656     0.78300
C306        C  0.23007130  0.52052272  0.12024807     0.78300
O307        O  0.05969021  0.87612773  0.30623988    -0.70900
O308        O  0.45744202  0.85121411  0.19541663    -0.71100
O309        O  0.52970170  0.80957960  0.22675514    -0.70900
O310        O  0.47235624  0.91468752  0.25330830    -0.71000
O311        O  0.02372902  0.94014642  0.22154221    -0.70900
O312        O  0.09745023  0.84257631  0.20372984    -0.70900
O313        O  0.50137509  0.87947404  0.14614476    -0.70900
O314        O  0.10033442  0.91059177  0.25824570    -0.71100
V315        V  0.50197803  0.86248348  0.23894837     1.35200
V316        V  0.05946348  0.89063651  0.21358902     1.35200
C317        C  0.09412517  0.89853196  0.29781818     0.78400
C318        C  0.46423734  0.86154491  0.15553320     0.78400
C319        C  0.56350226  0.80878647  0.20205745     0.78300
C320        C  0.48139174  0.94781327  0.23067300     0.78300
O321        O  0.25822229  0.97585425  0.38779135    -0.70900
O322        O  0.34197556  0.55228801  0.38345598    -0.71100
O323        O  0.27169905  0.04814615  0.43559398    -0.70900
O324        O  0.33345450  0.99797127  0.34020645    -0.71000
O325        O  0.25732208  0.52107094  0.31751085    -0.70900
O326        O  0.23701801  0.59062575  0.41683527    -0.70900
O327        O  0.29472640  0.59495062  0.35142576    -0.70900
O328        O  0.21782431  0.01322880  0.34274344    -0.71100
V329        V  0.30091716  0.02290673  0.38752620     1.35200
V330        V  0.24793777  0.55475631  0.36769551     1.35200
C331        C  0.22260303  0.97882309  0.36579858     0.78400
C332        C  0.33446900  0.58796985  0.36357278     0.78400
C333        C  0.24364128  0.07795299  0.42925292     0.78300
C334        C  0.32505828  0.01168221  0.30215521     0.78300
O335        O  0.40849828  0.72137338  0.45521448    -0.70900
O336        O  0.36758719  0.74868706  0.03918495    -0.71100
O337        O  0.30053051  0.74099731  0.98411962    -0.70900
O338        O  0.40259079  0.67409379  0.00136752    -0.71000
O339        O  0.42394364  0.83480792  0.44322758    -0.70900
O340        O  0.31237906  0.77961117  0.44979548    -0.70900
O341        O  0.39841009  0.79111488  0.99075728    -0.70900
O342        O  0.38553068  0.76381763  0.40311385    -0.71100
V343        V  0.35211998  0.70896278  0.99211872     1.35200
V344        V  0.36863140  0.80611148  0.44731151     1.35200
C345        C  0.40033130  0.72677305  0.41471924     0.78400
C346        C  0.38592653  0.78512042  0.03035028     0.78400
C347        C  0.30620674  0.74799821  0.47552527     0.78300
C348        C  0.45286099  0.82448744  0.47090738     0.78300
C349        C  0.18338459  0.96660145  0.03430616    -0.12400
C350        C  0.22884654  0.10187947  0.46571949    -0.13900
C351        C  0.35148365  0.99729349  0.22584449    -0.12400
C352        C  0.35093805  0.00050202  0.26483807    -0.13900
C353        C  0.01853859  0.62881645  0.00057385    -0.12400
C354        C  0.47250967  0.65370708  0.97507594    -0.13900
C355        C  0.22127825  0.78271874  0.96058363    -0.12400
C356        C  0.25843748  0.79218929  0.95102257    -0.13900
C357        C  0.97081552  0.52796558  0.25863392    -0.12400
C358        C  0.46124077  0.98825386  0.23927515    -0.13900
C359        C  0.11952559  0.73529798  0.23409497    -0.12400
C360        C  0.58641235  0.76920698  0.19826168    -0.13900
C361        C  0.34987566  0.63673543  0.87372936     0.81100
N362        N  0.38277458  0.63557465  0.84271853    -0.77200
C363        C  0.38480297  0.60418126  0.81130757     0.83600
N364        N  0.35251449  0.57247265  0.81085594    -0.77100
C365        C  0.31865270  0.57255122  0.84177992     0.83700
N366        N  0.31803843  0.60479058  0.87321101    -0.78800
C367        C  0.35970189  0.88127977  0.56275982     0.81100
N368        N  0.32931530  0.91453952  0.56115238    -0.77200
C369        C  0.33041076  0.94784117  0.59121612     0.83600
N370        N  0.36252248  0.94707023  0.62334442    -0.77100
C371        C  0.39368245  0.91444263  0.62483783     0.83700
N372        N  0.39148305  0.88199100  0.59450527    -0.78800
C373        C  0.11861275  0.86007947  0.86537720     0.81100
N374        N  0.12150561  0.82419079  0.89191240    -0.77200
C375        C  0.08985509  0.79193065  0.89135553     0.83600
N376        N  0.05451221  0.79597621  0.86319406    -0.77100
C377        C  0.05117046  0.83176698  0.83617508     0.83700
N378        N  0.08316484  0.86336116  0.83792109    -0.78800
C379        C  0.12051402  0.63487366  0.61911543     0.81100
N380        N  0.12439192  0.67174522  0.59436743    -0.77200
C381        C  0.09226358  0.70327370  0.59527622     0.83600
N382        N  0.05541531  0.69738761  0.62207798    -0.77100
C383        C  0.05122121  0.66021613  0.64729758     0.83700
N384        N  0.08396717  0.62955870  0.64526308    -0.78800
O385        O  0.98068304  0.62856268  0.67119699    -0.70900
O386        O  0.41975429  0.59171880  0.73938985    -0.71100
O387        O  0.43323196  0.65700768  0.68124013    -0.70900
O388        O  0.49669876  0.55536010  0.70912467    -0.71000
O389        O  0.01588775  0.59575082  0.77282427    -0.70900
O390        O  0.94100083  0.69220568  0.75767414    -0.70900
O391        O  0.45684555  0.62885544  0.78718758    -0.70900
O392        O  0.01780816  0.66518568  0.71935382    -0.71100
V393        V  0.46542919  0.60658895  0.69642821     1.35200
V394        V  0.97767877  0.64364587  0.76398069     1.35200
C395        C  0.01389452  0.65272193  0.67992385     0.78400
C396        C  0.42215857  0.60723731  0.77795185     0.78400
C397        C  0.90861542  0.69100788  0.73178807     0.78300
C398        C  0.00800439  0.56147717  0.75190468     0.78300
O399        O  0.08468809  0.64600835  0.96253595    -0.70900
O400        O  0.18811410  0.71532865  0.95389185    -0.71100
O401        O  0.08211252  0.73915923  0.52550290    -0.70900
O402        O  0.11177364  0.71835015  0.91355879    -0.71000
O403        O  0.08612145  0.76110671  0.96430857    -0.70900
O404        O  0.12211475  0.77401260  0.57271012    -0.70900
O405        O  0.18884945  0.78203283  0.51480527    -0.70900
O406        O  0.08837567  0.85083319  0.54041166    -0.71100
V407        V  0.13632602  0.68137336  0.95938596     1.35200
V408        V  0.13809928  0.81538914  0.52669086     1.35200
C409        C  0.05400473  0.84533896  0.51785536     0.78400
C410        C  0.18639032  0.75044431  0.48873672     0.78400
C411        C  0.09746857  0.74139567  0.56407015     0.78300
C412        C  0.09402311  0.75467575  0.92383281     0.78300
O413        O  0.26532501  0.59358464  0.59749810    -0.70900
O414        O  0.20751176  0.53443074  0.68937769    -0.71100
O415        O  0.29950013  0.01794119  0.61226034    -0.70900
O416        O  0.19078276  0.60594179  0.64273328    -0.71000
O417        O  0.15353692  0.56696862  0.59646581    -0.70900
O418        O  0.25512457  0.97466827  0.57757290    -0.70900
O419        O  0.20212460  0.97585760  0.64661110    -0.70900
O420        O  0.20709043  0.04355060  0.54461842    -0.71100
V421        V  0.23644698  0.56205691  0.64254191     1.35200
V422        V  0.20556618  0.01084324  0.59626784     1.35200
C423        C  0.22963457  0.07791583  0.54311518     0.78400
C424        C  0.22537087  0.98658671  0.67879641     0.78400
C425        C  0.29387509  0.98199750  0.59258191     0.78300
C426        C  0.15649612  0.60135309  0.61917789     0.78300
O427        O  0.97776361  0.85651033  0.81458179    -0.70900
O428        O  0.41798044  0.91372940  0.70126860    -0.71100
O429        O  0.43080632  0.83360567  0.72987298    -0.70900
O430        O  0.48072941  0.94065452  0.76077651    -0.71000
O431        O  0.01821492  0.90522647  0.72011645    -0.70900
O432        O  0.94680825  0.80475992  0.71865036    -0.70900
O433        O  0.46736694  0.89758134  0.65154700    -0.70900
O434        O  0.02089880  0.83091954  0.76328145    -0.71100
V435        V  0.45669114  0.88713906  0.74436612     1.35200
V436        V  0.98143789  0.85537171  0.72040982     1.35200
C437        C  0.01407771  0.83786798  0.80383485     0.78400
C438        C  0.42808617  0.91035155  0.66073022     0.78400
C439        C  0.45004862  0.81027733  0.70175379     0.78300
C440        C  0.51441801  0.95484707  0.74056026     0.78300
O441        O  0.19217806  0.88948644  0.88072221    -0.70900
O442        O  0.28998592  0.49857763  0.82845530    -0.71100
O443        O  0.22041970  0.94365120  0.94227850    -0.70900
O444        O  0.24927312  0.92702516  0.82328645    -0.71000
O445        O  0.17287101  0.50414043  0.82966676    -0.70900
O446        O  0.24342180  0.48781805  0.93016336    -0.70900
O447        O  0.24740201  0.54316996  0.86441901    -0.70900
O448        O  0.14318085  0.93520890  0.85649402    -0.71100
V449        V  0.23455190  0.93681702  0.88280952     1.35200
V450        V  0.20906503  0.49537153  0.87961875     1.35200
C451        C  0.15278799  0.89631480  0.86739936     0.78400
C452        C  0.28372759  0.53671724  0.84383087     0.78400
C453        C  0.18598416  0.96473775  0.95274040     0.78300
C454        C  0.22968911  0.94999825  0.79527591     0.78300
O455        O  0.33517935  0.66801714  0.94665156    -0.70900
O456        O  0.37558990  0.80749300  0.54105682    -0.71100
O457        O  0.33606133  0.73721949  0.50198753    -0.70900
O458        O  0.44722608  0.79157091  0.49490127    -0.71000
O459        O  0.43839693  0.71781012  0.95716710    -0.70900
O460        O  0.33320296  0.77926103  0.93289834    -0.70900
O461        O  0.35109017  0.84997037  0.48968060    -0.70900
O462        O  0.37408477  0.70654322  0.90055568    -0.71100
V463        V  0.39142440  0.76524443  0.49718256     1.35200
V464        V  0.38551909  0.74798735  0.94638227     1.35200
C465        C  0.35193073  0.67209615  0.90826560     0.78400
C466        C  0.36071424  0.84456091  0.52992414     0.78400
C467        C  0.29940771  0.77105883  0.95608526     0.78300
C468        C  0.43663383  0.68290113  0.97892724     0.78300
C469        C  0.22762293  0.10296616  0.50458602    -0.12400
C470        C  0.17332294  0.96621221  0.99692546    -0.13900
C471        C  0.23167149  0.95780523  0.71391410    -0.12400
C472        C  0.23638299  0.94479824  0.75017901    -0.13900
C473        C  0.01541720  0.87093200  0.52243195    -0.12400
C474        C  0.49224557  0.84822216  0.47611361    -0.13900
C475        C  0.22531466  0.72689691  0.47967189    -0.12400
C476        C  0.26462827  0.72715725  0.47629224    -0.13900
C477        C  0.03103746  0.52255140  0.76052917    -0.12400
C478        C  0.53425795  0.99320578  0.75572112    -0.13900
C479        C  0.88159474  0.72831780  0.72929410    -0.12400
C480        C  0.43089586  0.77045581  0.68927907    -0.13900
C481        C  0.88367597  0.18199612  0.43125814     0.81100
N482        N  0.92104523  0.17964957  0.40484301    -0.77200
C483        C  0.92434110  0.14812704  0.37309655     0.83600
N484        N  0.89042635  0.11931958  0.36850284    -0.77100
C485        C  0.85345728  0.12093044  0.39444763     0.83700
N486        N  0.85013288  0.15240164  0.42574480    -0.78800
C487        C  0.89744055  0.31307343  0.12291442     0.81100
N488        N  0.86764984  0.34661775  0.12022275    -0.77200
C489        C  0.87089473  0.38244096  0.14644707     0.83600
N490        N  0.90491281  0.38452569  0.17574350    -0.77100
C491        C  0.93535205  0.35147455  0.17906613     0.83700
N492        N  0.93142351  0.31572368  0.15253005    -0.78800
C493        C  0.69879400  0.43681363  0.38559879     0.81100
N494        N  0.69733781  0.40531962  0.41852063    -0.77200
C495        C  0.66474673  0.37338317  0.41878927     0.83600
N496        N  0.63376976  0.37421308  0.38655432    -0.77100
C497        C  0.63355318  0.40437076  0.35387302     0.83700
N498        N  0.66654230  0.43561267  0.35334508    -0.78800
C499        C  0.69150723  0.06054284  0.12823966     0.81100
N500        N  0.68701042  0.08734310  0.09194827    -0.77200
C501        C  0.65347062  0.11781996  0.09034496     0.83600
N502        N  0.62489269  0.12064009  0.12500378    -0.77100
C503        C  0.62808839  0.09486179  0.16097637     0.83700
N504        N  0.66170290  0.06477053  0.16273238    -0.78800
O505        O  0.56022447  0.12464463  0.18859015    -0.70900
O506        O  0.95697852  0.15397255  0.30138207    -0.71100
O507        O  0.03062102  0.19462041  0.27018031    -0.70900
O508        O  0.97342115  0.08893815  0.24543291    -0.71000
O509        O  0.52272336  0.06251097  0.27472985    -0.70900
O510        O  0.59678662  0.15987107  0.29002561    -0.70900
O511        O  0.99958036  0.12720015  0.35188353    -0.70900
O512        O  0.60022442  0.09098216  0.23693566    -0.71100
V513        V  0.00263255  0.14163749  0.25893966     1.35200
V514        V  0.55871917  0.11181775  0.28143324     1.35200
C515        C  0.59473269  0.10257438  0.19724045     0.78400
C516        C  0.96268223  0.14461496  0.34146138     0.78400
C517        C  0.59169401  0.19228724  0.26534785     0.78300
C518        C  0.48984229  0.06411872  0.24944165     0.78300
O519        O  0.56038721  0.30066575  0.48631650    -0.70900
O520        O  0.66106383  0.22889441  0.48868848    -0.71100
O521        O  0.65726689  0.14282163  0.01303617    -0.70900
O522        O  0.63649249  0.30381434  0.44386521    -0.71000
O523        O  0.66806731  0.34234926  0.49417832    -0.70900
O524        O  0.62138019  0.18238620  0.06035818    -0.70900
O525        O  0.65336619  0.25535516  0.02191232    -0.70900
O526        O  0.55123983  0.18744761  0.00919008    -0.71100
V527        V  0.61145260  0.26615444  0.48852474     1.35200
V528        V  0.60288296  0.22055279  0.01430690     1.35200
C529        C  0.55159859  0.15344589  0.98634173     0.78400
C530        C  0.68664452  0.24818292  0.99786315     0.78400
C531        C  0.64498145  0.14895816  0.05273181     0.78300
C532        C  0.65828993  0.33795644  0.45379765     0.78300
O533        O  0.77707807  0.95141829  0.06119836    -0.70900
O534        O  0.83682515  0.01031565  0.15119782    -0.71100
O535        O  0.84582915  0.45351751  0.12161204    -0.70900
O536        O  0.76114114  0.02655351  0.10426776    -0.71000
O537        O  0.72485765  0.99355199  0.15640809    -0.70900
O538        O  0.79746513  0.41297722  0.15570371    -0.70900
O539        O  0.75822063  0.48687833  0.18809459    -0.70900
O540        O  0.74309410  0.41677737  0.08862118    -0.71100
V541        V  0.80536438  0.98080193  0.10668615     1.35200
V542        V  0.75160159  0.45270522  0.13785451     1.35200
C543        C  0.76733904  0.42371162  0.05545570     0.78400
C544        C  0.78124245  0.52098679  0.18559489     0.78400
C545        C  0.83717204  0.41843448  0.14227778     0.78300
C546        C  0.72745048  0.02563190  0.12991740     0.78300
O547        O  0.56274640  0.37794518  0.32789272    -0.70900
O548        O  0.96259631  0.34918154  0.25280256    -0.71100
O549        O  0.03183803  0.31331255  0.29767971    -0.70900
O550        O  0.97432585  0.42166963  0.29761120    -0.71000
O551        O  0.52948790  0.43449248  0.23346867    -0.70900
O552        O  0.60270286  0.33529567  0.23310687    -0.70900
O553        O  0.01010073  0.36929378  0.20257611    -0.70900
O554        O  0.60428807  0.40904349  0.27845257    -0.71100
V555        V  0.00392599  0.36761920  0.29652550     1.35200
V556        V  0.56507460  0.38452262  0.23418960     1.35200
C557        C  0.59835450  0.39866222  0.31860247     0.78400
C558        C  0.97145127  0.35519903  0.21250159     0.78400
C559        C  0.06774918  0.30811096  0.27669281     0.78300
C560        C  0.98665588  0.44981800  0.27009094     0.78300
O561        O  0.77599758  0.46518760  0.37644173    -0.70900
O562        O  0.82678398  0.04824655  0.40175955    -0.71100
O563        O  0.83833296  0.50473472  0.42833518    -0.70900
O564        O  0.80379024  0.52074600  0.31187772    -0.71000
O565        O  0.78692105  0.04022679  0.29873436    -0.70900
O566        O  0.70979438  0.05097429  0.39564067    -0.70900
O567        O  0.78421237  0.09328889  0.36658484    -0.70900
O568        O  0.72501532  0.51291061  0.39088566    -0.71100
V569        V  0.81906559  0.51296879  0.37045413     1.35200
V570        V  0.74914813  0.04443538  0.34786182     1.35200
C571        C  0.73489727  0.47298259  0.38466115     0.78400
C572        C  0.81907715  0.08666304  0.38888419     0.78400
C573        C  0.81841008  0.52560176  0.45783865     0.78300
C574        C  0.77806012  0.55132523  0.30179252     0.78300
O575        O  0.89403011  0.20750973  0.50531100    -0.70900
O576        O  0.87786029  0.23888654  0.10276137    -0.71100
O577        O  0.80805751  0.22793518  0.05024813    -0.70900
O578        O  0.91435342  0.16472643  0.06655919    -0.71000
O579        O  0.89209219  0.32122229  0.50096536    -0.70900
O580        O  0.79125757  0.25251197  0.52063458    -0.70900
O581        O  0.90301916  0.28120769  0.05107807    -0.70900
O582        O  0.85634485  0.24945980  0.46190050    -0.71100
V583        V  0.86165245  0.19733448  0.05788324     1.35200
V584        V  0.84212398  0.28572306  0.51161162     1.35200
C585        C  0.87905254  0.21502254  0.46719456     0.78400
C586        C  0.89360582  0.27572760  0.09137894     0.78400
C587        C  0.79278660  0.21820061  0.54322674     0.78300
C588        C  0.92681404  0.31251694  0.52184828     0.78300
C589        C  0.76543486  0.39754483  0.01791369    -0.12400
C590        C  0.83307024  0.52536465  0.50130387    -0.13900
C591        C  0.77858390  0.55089672  0.22012436    -0.12400
C592        C  0.77399007  0.56140777  0.25723984    -0.13900
C593        C  0.51390030  0.12608990  0.98988421    -0.12400
C594        C  0.98787012  0.15200025  0.04327757    -0.13900
C595        C  0.72577440  0.27225638  0.00314057    -0.12400
C596        C  0.76428621  0.27467770  0.01051047    -0.13900
C597        C  0.46385328  0.02644336  0.24433655    -0.12400
C598        C  0.96592615  0.49052843  0.26670237    -0.13900
C599        C  0.61982578  0.22888851  0.26694277    -0.12400
C600        C  0.09218197  0.27002911  0.28435744    -0.13900
C601        C  0.85768975  0.12118079  0.94254773     0.81100
N602        N  0.88927202  0.11991495  0.91002566    -0.77200
C603        C  0.88927752  0.08889596  0.87822616     0.83600
N604        N  0.85620554  0.05817302  0.87923162    -0.77100
C605        C  0.82409459  0.05787279  0.91191224     0.83700
N606        N  0.82494250  0.08989597  0.94339880    -0.78800
C607        C  0.84054606  0.35070587  0.63232955     0.81100
N608        N  0.81079825  0.38419731  0.63051526    -0.77200
C609        C  0.81275482  0.41809333  0.65951418     0.83600
N610        N  0.84569810  0.41873577  0.69021677    -0.77100
C611        C  0.87608187  0.38581449  0.69203679     0.83700
N612        N  0.87324697  0.35216385  0.66304886    -0.78800
C613        C  0.62164379  0.36215405  0.87543078     0.81100
N614        N  0.62448116  0.32504965  0.90003950    -0.77200
C615        C  0.59184563  0.29388019  0.89892515     0.83600
N616        N  0.55555122  0.30044918  0.87232326    -0.77100
C617        C  0.55228713  0.33775250  0.84736951     0.83700
N618        N  0.58543127  0.36803378  0.84952877    -0.78800
C619        C  0.61472177  0.12861430  0.63122580     0.81100
N620        N  0.61751736  0.16394903  0.60399494    -0.77200
C621        C  0.58646917  0.19664953  0.60516828     0.83600
N622        N  0.55189763  0.19380402  0.63517706    -0.77100
C623        C  0.54840082  0.15846098  0.66304958     0.83700
N624        N  0.57984603  0.12621545  0.66032756    -0.78800
O625        O  0.47507978  0.13421103  0.68802146    -0.70900
O626        O  0.91379662  0.08255710  0.80162681    -0.71100
O627        O  0.91945711  0.15509101  0.75450321    -0.70900
O628        O  0.98251804  0.04971297  0.75209700    -0.71000
O629        O  0.50872747  0.09798647  0.79184289    -0.70900
O630        O  0.44118296  0.19858530  0.77347386    -0.70900
O631        O  0.96086246  0.10993435  0.84746251    -0.70900
O632        O  0.51680791  0.16474916  0.73676470    -0.71100
V633        V  0.95211991  0.10274181  0.75411268     1.35200
V634        V  0.47383116  0.14758464  0.78142885     1.35200
C635        C  0.51123116  0.15375703  0.69692374     0.78400
C636        C  0.92305215  0.09251413  0.84101835     0.78400
C637        C  0.40737515  0.19840855  0.74942551     0.78300
C638        C  0.50228596  0.06586065  0.76751742     0.78300
O639        O  0.58477068  0.14523248  0.96214678    -0.70900
O640        O  0.68654704  0.21659033  0.97161003    -0.71100
O641        O  0.58574851  0.22712924  0.53165182    -0.70900
O642        O  0.61531496  0.22063016  0.92085058    -0.71000
O643        O  0.58344706  0.26094587  0.97028230    -0.70900
O644        O  0.60899592  0.27014726  0.58279274    -0.70900
O645        O  0.68637153  0.26712734  0.54299320    -0.70900
O646        O  0.58945404  0.34488496  0.53371869    -0.71100
V647        V  0.63522465  0.18203762  0.96756182     1.35200
V648        V  0.63784147  0.30537920  0.53753281     1.35200
C649        C  0.55993305  0.33667608  0.50581485     0.78400
C650        C  0.68713854  0.23275696  0.52039048     0.78400
C651        C  0.59162997  0.23380304  0.57237756     0.78300
C652        C  0.59521710  0.25596347  0.93055084     0.78300
O653        O  0.72560142  0.04560810  0.55895233    -0.70900
O654        O  0.74264319  0.06891679  0.67814262    -0.71100
O655        O  0.79096024  0.49333189  0.66973623    -0.70900
O656        O  0.68922568  0.10085824  0.61624324    -0.71000
O657        O  0.64096096  0.05422634  0.64103999    -0.70900
O658        O  0.74808070  0.45249671  0.63034875    -0.70900
O659        O  0.67416540  0.49516081  0.65968366    -0.70900
O660        O  0.75639454  0.50934441  0.56652729    -0.71100
V661        V  0.73390338  0.05566176  0.61874111     1.35200
V662        V  0.71592769  0.50316418  0.61329542     1.35200
C663        C  0.79156248  0.53091088  0.57203534     0.78400
C664        C  0.68213038  0.51345478  0.69574737     0.78400
C665        C  0.78232226  0.45606763  0.65396508     0.78300
C666        C  0.64967145  0.09310970  0.62939860     0.78300
O667        O  0.48103582  0.36828095  0.82494153    -0.70900
O668        O  0.90751462  0.40085939  0.76335692    -0.71100
O669        O  0.91910900  0.33291845  0.81556425    -0.70900
O670        O  0.97952562  0.43949138  0.80125145    -0.71000
O671        O  0.52253007  0.40947502  0.72922268    -0.70900
O672        O  0.44629488  0.31288978  0.73074304    -0.70900
O673        O  0.94898714  0.36704067  0.71567443    -0.70900
O674        O  0.52102552  0.33623780  0.77495880    -0.71100
V675        V  0.95033731  0.38563659  0.80758732     1.35200
V676        V  0.48345295  0.36169843  0.73109353     1.35200
C677        C  0.51540326  0.34587854  0.81507221     0.78400
C678        C  0.91251907  0.38561527  0.72488583     0.78400
C679        C  0.93197896  0.30072331  0.79353953     0.78300
C680        C  0.00995799  0.44349282  0.77274325     0.78300
O681        O  0.69407446  0.39205223  0.85663065    -0.70900
O682        O  0.79451033  0.98818051  0.89080000    -0.71100
O683        O  0.76478045  0.41263072  0.90434483    -0.70900
O684        O  0.70936040  0.46164116  0.80602588    -0.71000
O685        O  0.69367013  0.02635120  0.85647379    -0.70900
O686        O  0.70359768  0.95860176  0.95773205    -0.70900
O687        O  0.74766482  0.03049862  0.92436973    -0.70900
O688        O  0.65053368  0.43221734  0.89677465    -0.71100
V689        V  0.73687424  0.43895980  0.85600886     1.35200
V690        V  0.69999145  0.99139652  0.90631632     1.35200
C691        C  0.65712706  0.39657898  0.87679613     0.78400
C692        C  0.78730761  0.02392320  0.91024161     0.78400
C693        C  0.74909058  0.42091078  0.94171586     0.78300
C694        C  0.67769061  0.48815106  0.81027728     0.78300
O695        O  0.84442711  0.15446796  0.01457869    -0.70900
O696        O  0.86330187  0.28107593  0.60305949    -0.71100
O697        O  0.82758549  0.20872048  0.56369329    -0.70900
O698        O  0.92865396  0.27868830  0.54514247    -0.71000
O699        O  0.94690459  0.21001171  0.02153794    -0.70900
O700        O  0.83852242  0.26268617  0.99527006    -0.70900
O701        O  0.82643230  0.32355043  0.55948848    -0.70900
O702        O  0.88272220  0.19128557  0.96654039    -0.71100
V703        V  0.87766688  0.24482272  0.55350492     1.35200
V704        V  0.89225662  0.23553658  0.00968242     1.35200
C705        C  0.86072486  0.15718482  0.97593794     0.78400
C706        C  0.84230187  0.31647275  0.59732718     0.78400
C707        C  0.80548862  0.25555423  0.01968765     0.78300
C708        C  0.94813263  0.17613011  0.04468751     0.78300
C709        C  0.82413860  0.53008393  0.53887470    -0.12400
C710        C  0.76218811  0.39769016  0.97919405    -0.13900
C711        C  0.65527783  0.50751070  0.73343841    -0.12400
C712        C  0.65511521  0.50140149  0.77205545    -0.13900
C713        C  0.52564639  0.36630882  0.49480999    -0.12400
C714        C  0.96478719  0.33901714  0.51964260    -0.13900
C715        C  0.71740973  0.19935840  0.53175224    -0.12400
C716        C  0.75423875  0.19224246  0.54373919    -0.13900
C717        C  0.53036530  0.02953770  0.76784912    -0.12400
C718        C  0.03051447  0.48436084  0.76671896    -0.13900
C719        C  0.38203923  0.23700209  0.74749524    -0.12400
C720        C  0.90849350  0.26122897  0.79334268    -0.13900
C721        C  0.91551516  0.70245719  0.39870379     0.81100
N722        N  0.95056558  0.69964446  0.36936619    -0.77200
C723        C  0.95453591  0.66420711  0.34201683     0.83600
N724        N  0.92325730  0.63180838  0.34463425    -0.77100
C725        C  0.88811419  0.63392970  0.37334025     0.83700
N726        N  0.88469458  0.66950467  0.40003324    -0.78800
C727        C  0.90515488  0.79821841  0.09797129     0.81100
N728        N  0.87246223  0.82935262  0.10016460    -0.77200
C729        C  0.87752556  0.86573689  0.12535622     0.83600
N730        N  0.91566996  0.87103480  0.14810546    -0.77100
C731        C  0.94866078  0.84082882  0.14691194     0.83700
N732        N  0.94340592  0.80410261  0.12179581    -0.78800
C733        C  0.68369941  0.92343169  0.34071278     0.81100
N734        N  0.68300438  0.89118441  0.37207848    -0.77200
C735        C  0.65050633  0.86007133  0.37254866     0.83600
N736        N  0.61804198  0.86193465  0.34164350    -0.77100
C737        C  0.61738725  0.89373460  0.31009557     0.83700
N738        N  0.65054387  0.92453956  0.30991598    -0.78800
C739        C  0.67516111  0.55949726  0.09531446     0.81100
N740        N  0.67529653  0.59101333  0.06281563    -0.77200
C741        C  0.64291690  0.62281023  0.06242309     0.83600
N742        N  0.61097141  0.62238255  0.09449634    -0.77100
C743        C  0.61019428  0.59186035  0.12688686     0.83700
N744        N  0.64264912  0.56083873  0.12730326    -0.78800
O745        O  0.53816563  0.61225609  0.15474976    -0.70900
O746        O  0.98328113  0.66510902  0.26771498    -0.71100
O747        O  0.05595076  0.69607574  0.22220677    -0.70900
O748        O  0.99050865  0.59219490  0.22311312    -0.71000
O749        O  0.51836410  0.55840089  0.25605551    -0.70900
O750        O  0.57697307  0.66535639  0.24199220    -0.70900
O751        O  0.02938276  0.64393688  0.31781717    -0.70900
O752        O  0.58532848  0.58907304  0.20303052    -0.71100
V753        V  0.02423614  0.64372824  0.22375588     1.35200
V754        V  0.54646880  0.61214558  0.24824046     1.35200
C755        C  0.57615785  0.59636447  0.16300414     0.78400
C756        C  0.99141352  0.65960885  0.30818620     0.78400
C757        C  0.56201351  0.69246145  0.21494209     0.78300
C758        C  0.48442672  0.54941810  0.23394199     0.78300
O759        O  0.56403052  0.78213998  0.46301244    -0.70900
O760        O  0.66747950  0.71850958  0.43484959    -0.71100
O761        O  0.65318763  0.65457344  0.98871790    -0.70900
O762        O  0.62601579  0.79101388  0.40212126    -0.71000
O763        O  0.66582419  0.83087627  0.44535077    -0.70900
O764        O  0.61968074  0.69367527  0.03810116    -0.70900
O765        O  0.65862575  0.76628927  0.00389145    -0.70900
O766        O  0.55150884  0.70770109  0.98670670    -0.71100
V767        V  0.61599829  0.75106108  0.44995012     1.35200
V768        V  0.60552090  0.73608322  0.99396210     1.35200
C769        C  0.54974097  0.67458179  0.96271120     0.78400
C770        C  0.69120767  0.75817004  0.97923953     0.78400
C771        C  0.63985747  0.65863002  0.02830728     0.78300
C772        C  0.64818580  0.82567588  0.40796640     0.78300
O773        O  0.79198388  0.45670763  0.05400311    -0.70900
O774        O  0.80525048  0.52801682  0.15238481    -0.71100
O775        O  0.85027425  0.93651252  0.10647574    -0.70900
O776        O  0.75074635  0.53048117  0.08465298    -0.71000
O777        O  0.70372265  0.49080815  0.12142403    -0.70900
O778        O  0.80809026  0.89774163  0.14962196    -0.70900
O779        O  0.80078110  0.96972871  0.19818705    -0.70900
O780        O  0.73352382  0.91932276  0.10880140    -0.71100
V781        V  0.79762045  0.49132906  0.10382726     1.35200
V782        V  0.76743288  0.94616618  0.15261158     1.35200
C783        C  0.74697111  0.92414494  0.06997714     0.78400
C784        C  0.83070652  0.99728479  0.18998369     0.78400
C785        C  0.84350343  0.90104495  0.12675320     0.78300
C786        C  0.71125987  0.52522694  0.09935765     0.78300
O787        O  0.54518400  0.87180512  0.28416424    -0.70900
O788        O  0.98261529  0.83488698  0.21690292    -0.71100
O789        O  0.05905610  0.80825032  0.25394206    -0.70900
O790        O  0.98338405  0.90443875  0.26918333    -0.71000
O791        O  0.51165148  0.94605711  0.20182271    -0.70900
O792        O  0.57549228  0.84256203  0.18191352    -0.70900
O793        O  0.01957583  0.87177336  0.16783862    -0.70900
O794        O  0.58545060  0.90859023  0.23772981    -0.71100
V795        V  0.02200806  0.85660572  0.26047752     1.35200
V796        V  0.54258432  0.89374305  0.19274375     1.35200
C797        C  0.58101213  0.89235847  0.27608677     0.78400
C798        C  0.98652512  0.84753146  0.17753822     0.78400
C799        C  0.09174079  0.80974722  0.22778794     0.78300
C800        C  0.99091712  0.93861296  0.24753333     0.78300
O801        O  0.75333471  0.95301324  0.36622713    -0.70900
O802        O  0.86305669  0.55888790  0.36378853    -0.71100
O803        O  0.75290151  0.00735762  0.43241504    -0.70900
O804        O  0.82865860  0.99465538  0.33446128    -0.71000
O805        O  0.75744589  0.57185424  0.33120453    -0.70900
O806        O  0.78433634  0.54763106  0.44877041    -0.70900
O807        O  0.81445155  0.60445334  0.38966405    -0.70900
O808        O  0.71208461  0.99689554  0.32835040    -0.71100
V809        V  0.78957304  0.00160916  0.38294038     1.35200
V810        V  0.77095593  0.55800467  0.38987454     1.35200
C811        C  0.71829636  0.95895149  0.34404756     0.78400
C812        C  0.85384937  0.59760994  0.37565234     0.78400
C813        C  0.71768395  0.02929483  0.42962925     0.78300
C814        C  0.82202597  0.01803304  0.30115460     0.78300
O815        O  0.91743413  0.73295436  0.47163073    -0.70900
O816        O  0.87822504  0.72652245  0.07586909    -0.71100
O817        O  0.80862301  0.72175236  0.02308890    -0.70900
O818        O  0.90962776  0.65041027  0.03776145    -0.71000
O819        O  0.91620056  0.84655085  0.47145314    -0.70900
O820        O  0.81333400  0.77773576  0.46007516    -0.70900
O821        O  0.91264142  0.76519499  0.02651266    -0.70900
O822        O  0.89120938  0.77514532  0.42091999    -0.71100
V823        V  0.85959094  0.68713164  0.02970503     1.35200
V824        V  0.86506809  0.81117789  0.46677881     1.35200
C825        C  0.91013487  0.73945062  0.43114033     0.78400
C826        C  0.89979971  0.76098181  0.06608930     0.78400
C827        C  0.81163718  0.74071325  0.47792043     0.78300
C828        C  0.94225497  0.83860786  0.50258289     0.78300
C829        C  0.72977548  0.89981057  0.03513881    -0.12400
C830        C  0.68817650  0.02882354  0.46530779    -0.13900
C831        C  0.85468967  0.01350042  0.22591161    -0.12400
C832        C  0.85124091  0.01781764  0.26457470    -0.13900
C833        C  0.51054082  0.64983239  0.96499624    -0.12400
C834        C  0.98050680  0.62947539  0.01201906    -0.13900
C835        C  0.73198752  0.77937858  0.98512013    -0.12400
C836        C  0.77090347  0.77791668  0.99056893    -0.13900
C837        C  0.46312809  0.50946006  0.24225653    -0.12400
C838        C  0.96590977  0.97692823  0.25443030    -0.13900
C839        C  0.58499937  0.73124430  0.20516944    -0.12400
C840        C  0.11982115  0.77313129  0.22609165    -0.13900
C841        C  0.84517812  0.61874897  0.90903880     0.81100
N842        N  0.87322690  0.62156333  0.87393736    -0.77200
C843        C  0.87165121  0.59360967  0.83955923     0.83600
N844        N  0.84026263  0.56103360  0.84030015    -0.77100
C845        C  0.81098128  0.55663810  0.87536944     0.83700
N846        N  0.81388087  0.58593559  0.90976982    -0.78800
C847        C  0.83837458  0.87299061  0.58772360     0.81100
N848        N  0.80631615  0.90502391  0.58905003    -0.77200
C849        C  0.80615053  0.93598472  0.62193330     0.83600
N850        N  0.83915850  0.93454341  0.65315086    -0.77100
C851        C  0.87173757  0.90316758  0.65158023     0.83700
N852        N  0.87039340  0.87300686  0.61903231    -0.78800
C853        C  0.62597464  0.88345062  0.86042260     0.81100
N854        N  0.62614362  0.84757270  0.88686486    -0.77200
C855        C  0.59793044  0.81342204  0.88022536     0.83600
N856        N  0.56842539  0.81553162  0.84601196    -0.77100
C857        C  0.56787407  0.85120809  0.81857545     0.83700
N858        N  0.59702803  0.88474353  0.82606113    -0.78800
C859        C  0.65306285  0.62274222  0.60644255     0.81100
N860        N  0.65290967  0.65336328  0.57378275    -0.77200
C861        C  0.61760423  0.68138889  0.56937457     0.83600
N862        N  0.58184613  0.67760395  0.59760475    -0.77100
C863        C  0.58185647  0.64674985  0.63023386     0.83700
N864        N  0.61751513  0.61995185  0.63416652    -0.78800
O865        O  0.50915466  0.62049022  0.65182561    -0.70900
O866        O  0.89893886  0.58967315  0.76301419    -0.71100
O867        O  0.90275428  0.65812280  0.70811263    -0.70900
O868        O  0.97584346  0.56023927  0.72572357    -0.71000
O869        O  0.53304166  0.58949280  0.76006869    -0.70900
O870        O  0.47319740  0.69166304  0.72912201    -0.70900
O871        O  0.93916807  0.62402798  0.81040094    -0.70900
O872        O  0.54817090  0.65287206  0.70168323    -0.71100
V873        V  0.94040407  0.60980337  0.71775291     1.35200
V874        V  0.50194630  0.64000302  0.74361981     1.35200
C875        C  0.54418862  0.64105008  0.66206351     0.78400
C876        C  0.90471489  0.60152227  0.80259553     0.78400
C877        C  0.44377780  0.69176759  0.70003502     0.78300
C878        C  0.52576104  0.55545843  0.73869071     0.78300
O879        O  0.58217379  0.66499302  0.93819578    -0.70900
O880        O  0.68871594  0.72811376  0.95130794    -0.71100
O881        O  0.60419485  0.70953726  0.49623373    -0.70900
O882        O  0.61789476  0.73904327  0.90036146    -0.71000
O883        O  0.59020073  0.78003493  0.95162660    -0.70900
O884        O  0.63908506  0.75204729  0.54105263    -0.70900
O885        O  0.70290804  0.75905527  0.48144767    -0.70900
O886        O  0.60178115  0.82535597  0.50524907    -0.71100
V887        V  0.63497415  0.69755264  0.94540639     1.35200
V888        V  0.65169041  0.79083053  0.49251030     1.35200
C889        C  0.56666118  0.81648485  0.48536894     0.78400
C890        C  0.70240869  0.72741110  0.45544707     0.78400
C891        C  0.61933005  0.71612972  0.53444138     0.78300
C892        C  0.60046412  0.77521963  0.91141338     0.78300
O893        O  0.79683027  0.55231045  0.60655167    -0.70900
O894        O  0.71728706  0.53502754  0.70015695    -0.71100
O895        O  0.78053116  0.01173068  0.62077689    -0.70900
O896        O  0.72122943  0.59330147  0.63604302    -0.71000
O897        O  0.68192211  0.55181596  0.59381644    -0.70900
O898        O  0.72922148  0.96269154  0.62817934    -0.70900
O899        O  0.69855989  0.01470562  0.69388081    -0.70900
O900        O  0.66950023  0.00353712  0.57538869    -0.71100
V901        V  0.75569415  0.54284439  0.65234392     1.35200
V902        V  0.68570715  0.00935498  0.63439695     1.35200
C903        C  0.69203447  0.02414066  0.54741854     0.78400
C904        C  0.72205264  0.04624953  0.70593302     0.78400
C905        C  0.77049750  0.97153543  0.62363399     0.78300
C906        C  0.68827045  0.58885610  0.61051447     0.78300
O907        O  0.49344023  0.86096843  0.78919727    -0.70900
O908        O  0.90110325  0.90662547  0.72620120    -0.71100
O909        O  0.90291228  0.83170556  0.76891485    -0.70900
O910        O  0.97554981  0.93115247  0.77194642    -0.71000
O911        O  0.52855843  0.93545852  0.70688714    -0.70900
O912        O  0.48738095  0.82171968  0.68634892    -0.70900
O913        O  0.94348265  0.87849465  0.67570011    -0.70900
O914        O  0.54797442  0.85989549  0.74203712    -0.71100
V915        V  0.94024019  0.88106004  0.76948204     1.35200
V916        V  0.50687286  0.87879523  0.69746136     1.35200
C917        C  0.53484202  0.85576326  0.78165083     0.78400
C918        C  0.90736886  0.89771628  0.68587001     0.78400
C919        C  0.91139375  0.80270500  0.74105175     0.78300
C920        C  0.01039050  0.93366673  0.74874604     0.78300
O921        O  0.70020347  0.91196334  0.85651115    -0.70900
O922        O  0.78148868  0.48504003  0.85397519    -0.71100
O923        O  0.75201907  0.91621305  0.92584343    -0.70900
O924        O  0.74132105  0.98387246  0.82342282    -0.71000
O925        O  0.66764600  0.50243890  0.84774897    -0.70900
O926        O  0.72055788  0.45061877  0.94634618    -0.70900
O927        O  0.74001718  0.52290943  0.89809586    -0.70900
O928        O  0.65148072  0.95364177  0.88840483    -0.71100
V929        V  0.74606833  0.95091836  0.87488926     1.35200
V930        V  0.69585897  0.47656253  0.89651628     1.35200
C931        C  0.66010681  0.91853885  0.86773753     0.78400
C932        C  0.77610127  0.52001776  0.87590872     0.78400
C933        C  0.72691208  0.92471865  0.95805159     0.78300
C934        C  0.71794609  0.01785553  0.82398033     0.78300
O935        O  0.83903152  0.64671859  0.98495721    -0.70900
O936        O  0.85967995  0.80238990  0.56029037    -0.71100
O937        O  0.83862073  0.73140634  0.50783623    -0.70900
O938        O  0.93839434  0.80347664  0.52365020    -0.71000
O939        O  0.94447598  0.69072034  0.98969789    -0.70900
O940        O  0.84363348  0.75996551  0.97335162    -0.70900
O941        O  0.83791210  0.84854633  0.51102468    -0.70900
O942        O  0.87544623  0.68542550  0.93710723    -0.71100
V943        V  0.88804484  0.76856405  0.51494400     1.35200
V944        V  0.89343887  0.72443664  0.98276168     1.35200
C945        C  0.85225778  0.65173332  0.94540256     0.78400
C946        C  0.84317236  0.83947775  0.55146203     0.78400
C947        C  0.80962175  0.75327552  0.99657035     0.78300
C948        C  0.94326043  0.65746698  0.01381211     0.78300
C949        C  0.68034383  0.02449550  0.50315029    -0.12400
C950        C  0.72629577  0.89924858  0.99642276    -0.13900
C951        C  0.72391758  0.05537117  0.75062234    -0.12400
C952        C  0.71988826  0.04586743  0.78798389    -0.13900
C953        C  0.53031841  0.84502808  0.48514482    -0.12400
C954        C  0.97706612  0.86733560  0.51384780    -0.13900
C955        C  0.74242307  0.70396578  0.45134611    -0.12400
C956        C  0.77949256  0.71046472  0.46317844    -0.13900
C957        C  0.54618997  0.51592438  0.74964604    -0.12400
C958        C  0.03905803  0.96924126  0.75572926    -0.13900
C959        C  0.42632123  0.73217989  0.68771341    -0.12400
C960        C  0.88330466  0.76644432  0.73522588    -0.13900
loop_ 
_geom_bond_atom_site_label_1 
_geom_bond_atom_site_label_2 
_geom_bond_distance 
_geom_bond_site_symmetry_2 
_ccdc_geom_bond_type 
C1            N2   1.376       .  A
C1            N6   1.373       .  A
C1          C105   1.513       .  S
N2            C3   1.374       .  A
C3            N4   1.363       .  A
C3           C36   1.499       .  S
N4            C5   1.359       .  A
C5            N6   1.369       .  A
C5           C92   1.499       .  S
C7            N8   1.369       .  A
C7           N12   1.384       .  A
C7          C106   1.523       .  S
N8            C9   1.365       .  A
C9           N10   1.369       .  A
C9           C65   1.516       .  S
N10          C11   1.373       .  A
C11          N12   1.385       .  A
C11          C78   1.527       .  S
C13          N14   1.386       .  A
C13          N18   1.378       .  A
C13          C91   1.529       .  S
N14          C15   1.382       .  A
C15          N16   1.360       .  A
C15          C52   1.520       .  S
N16          C17   1.358       .  A
C17          N18   1.368       .  A
C17          C77   1.502       .  S
C19          N20   1.373       .  A
C19          N24   1.377       .  A
C19          C66   1.511       .  S
N20          C21   1.366       .  A
C21          N22   1.359       .  A
C21          C51   1.501       .  S
N22          C23   1.364       .  A
C23          N24   1.375       .  A
C23          C35   1.506       .  S
O25          C35   1.268       .  A
O25         V513   1.911       .  S
O26          C36   1.266       .  A
O26          V33   1.914       .  S
O27         C517   1.260       .  A
O27          V33   1.871       .  S
O28         C518   1.257       .  A
O28          V33   1.887       .  S
O29          C38   1.259   1_455  A
O29          V34   1.877       .  S
O30          C37   1.254       .  A
O30          V34   1.880       .  S
O31          C36   1.274       .  A
O31         V514   1.937       .  S
O32          C35   1.274       .  A
O32          V34   1.944       .  S
V33         O505   1.906       .  S
V33         V514   2.089       .  T
V34         O511   1.940   1_455  S
V34         V513   2.087       .  T
C37         O507   1.260       .  A
C37         C119   1.401       .  S
C38         O508   1.259       .  A
C38         C117   1.412       .  S
O39         C169   1.259       .  A
O39          V47   1.870       .  S
O40         C170   1.255       .  A
O40          V47   1.879       .  S
O41          C51   1.270       .  A
O41         V167   1.927       .  S
O42          C52   1.274       .  A
O42          V47   1.927       .  S
O43          C52   1.273       .  A
O43         V168   1.949       .  S
O44          C51   1.270       .  A
O44          V48   1.919       .  S
O45          C50   1.257       .  A
O45          V48   1.889       .  S
O46          C49   1.261       .  A
O46          V48   1.872       .  S
V47         O161   1.934       .  S
V47         V168   2.085       .  T
V48         O163   1.922       .  S
V48         V167   2.086       .  T
C49         O159   1.256       .  A
C49         C113   1.411       .  S
C50         O160   1.258       .  A
C50         C115   1.401       .  S
O53         C303   1.261       .  A
O53          V61   1.878   1_565  S
O54         C304   1.261   1_545  A
O54          V61   1.899       .  S
O55          C65   1.271       .  A
O55         V301   1.935       .  S
O56          C66   1.269       .  A
O56          V61   1.922       .  S
O57          C66   1.274       .  A
O57         V302   1.939   1_545  S
O58          C65   1.274       .  A
O58          V62   1.939       .  S
O59          C64   1.253       .  A
O59          V62   1.874       .  S
O60          C63   1.256       .  A
O60          V62   1.862       .  S
V61         O295   1.923   1_545  S
V61         V302   2.089   1_545  T
V62         O297   1.956       .  S
V62         V301   2.086       .  T
C63         O293   1.256       .  A
C63         C109   1.396       .  S
C64         O294   1.258       .  A
C64         C111   1.391       .  S
O67          C77   1.268       .  A
O67         V555   1.911       .  S
O68          C78   1.272       .  A
O68          V75   1.936       .  S
O69          C79   1.259       .  A
O69          V75   1.871       .  S
O70          C80   1.256       .  A
O70          V75   1.887       .  S
O71         C560   1.258   1_455  A
O71          V76   1.865       .  S
O72         C559   1.255       .  A
O72          V76   1.883       .  S
O73          C78   1.277       .  A
O73         V556   1.952       .  S
O74          C77   1.272       .  A
O74          V76   1.939       .  S
V75         O547   1.928       .  S
V75         V556   2.086       .  T
V76         O553   1.935       .  S
V76         V555   2.089       .  T
C79         O552   1.257       .  A
C79         C120   1.410       .  S
C80         O551   1.259       .  A
C80         C118   1.408       .  S
O81          C91   1.275       .  A
O81          V89   1.945       .  S
O82          C92   1.266       .  A
O82         V329   1.915       .  S
O83          C93   1.257       .  A
O83          V89   1.863       .  S
O84          C94   1.253       .  A
O84          V89   1.870       .  S
O85         C334   1.258       .  A
O85          V90   1.869       .  S
O86         C333   1.253       .  A
O86          V90   1.878       .  S
O87          C92   1.273       .  A
O87          V90   1.937       .  S
O88          C91   1.275       .  A
O88         V330   1.937       .  S
V89         O322   1.937       .  S
V89         V330   2.087       .  T
V90         O328   1.949       .  S
V90         V329   2.088       .  T
C93         O326   1.258       .  A
C93         C110   1.406       .  S
C94         O325   1.259       .  A
C94         C112   1.393       .  S
O95         C105   1.270       .  A
O95         V223   1.929       .  S
O96         C106   1.278       .  A
O96         V103   1.954       .  S
O97         C227   1.263       .  A
O97         V103   1.886       .  S
O98         C228   1.260       .  A
O98         V103   1.898       .  S
O99         C108   1.260       .  A
O99         V104   1.900       .  S
O100        C107   1.261       .  A
O100        V104   1.879       .  S
O101        C106   1.270       .  A
O101        V224   1.927   1_554  S
O102        C105   1.274       .  A
O102        V104   1.941       .  S
V103        O215   1.965       .  S
V103        V224   2.086   1_554  T
V104        O221   1.947       .  S
V104        V223   2.087       .  T
C107        O217   1.254       .  A
C107        C236   1.403       .  S
C108        O218   1.258       .  A
C108        C234   1.413       .  S
C109        C230   1.182   1_554  T
C110        C229   1.186       .  T
C111        C112   1.179       .  T
C113        C594   1.189   1_455  T
C114        C228   1.416       .  S
C114        C593   1.193   1_554  T
C115        C116   1.187       .  T
C116        C227   1.413       .  S
C117        C838   1.191   1_545  T
C118        C837   1.187       .  T
C119        C600   1.184       .  T
C120        C599   1.188       .  T
C121        N122   1.359       .  A
C121        N126   1.387       .  A
C121        C225   1.531       .  S
N122        C123   1.356       .  A
C123        N124   1.376       .  A
C123        C156   1.517       .  S
N124        C125   1.382       .  A
C125        N126   1.394       .  A
C125        C212   1.546       .  S
C127        N128   1.377       .  A
C127        N132   1.357       .  A
C127        C226   1.517       .  S
N128        C129   1.384       .  A
C129        N130   1.386       .  A
C129        C185   1.536       .  S
N130        C131   1.379       .  A
C131        N132   1.358       .  A
C131        C198   1.517       .  S
C133        N134   1.368       .  A
C133        N138   1.359       .  A
C133        C211   1.500       .  S
N134        C135   1.375       .  A
C135        N136   1.368       .  A
C135        C172   1.496       .  S
N136        C137   1.366       .  A
C137        N138   1.362       .  A
C137        C197   1.484       .  S
C139        N140   1.366       .  A
C139        N144   1.366       .  A
C139        C186   1.507       .  S
N140        C141   1.367       .  A
C141        N142   1.380       .  A
C141        C171   1.522       .  S
N142        C143   1.382       .  A
C143        N144   1.372       .  A
C143        C155   1.518       .  S
O145        C155   1.274   1_655  A
O145        V633   1.942       .  S
O146        C156   1.271       .  A
O146        V153   1.940       .  S
O147        C637   1.259       .  A
O147        V153   1.896       .  S
O148        C638   1.260       .  A
O148        V153   1.869       .  S
O149        C158   1.257       .  A
O149        V154   1.890   1_455  S
O150        C157   1.258       .  A
O150        V154   1.869       .  S
O151        C156   1.275       .  A
O151        V634   1.930       .  S
O152        C155   1.272       .  A
O152        V154   1.934   1_455  S
V153        O625   1.940       .  S
V153        V634   2.087       .  T
V154        O631   1.931       .  S
V154        V633   2.088       .  T
C157        O627   1.257       .  A
C157        C239   1.405       .  S
C158        O628   1.259   1_455  A
C158        C237   1.409       .  S
O159        V167   1.885       .  S
O160        V167   1.860       .  S
O161        C171   1.272       .  A
O162        C172   1.270       .  A
O162        V167   1.925   1_556  S
O163        C172   1.268   1_554  A
O164        C171   1.275       .  A
O164        V168   1.947       .  S
O165        C170   1.259       .  A
O165        V168   1.877       .  S
O166        C169   1.257       .  A
O166        V168   1.887       .  S
C169        C233   1.406       .  S
C170        C235   1.402       .  S
O173        C423   1.259       .  A
O173        V181   1.890       .  S
O174        C424   1.259   1_545  A
O174        V181   1.873       .  S
O175        C185   1.276       .  A
O175        V421   1.949       .  S
O176        C186   1.269       .  A
O176        V181   1.923       .  S
O177        C186   1.274       .  A
O177        V422   1.939       .  S
O178        C185   1.275       .  A
O178        V182   1.945       .  S
O179        C184   1.258       .  A
O179        V182   1.893       .  S
O180        C183   1.261       .  A
O180        V182   1.869       .  S
V181        O415   1.930       .  S
V181        V422   2.088       .  T
V182        O417   1.925       .  S
V182        V421   2.088       .  T
C183        O413   1.254       .  A
C183        C229   1.406       .  S
C184        O414   1.258       .  A
C184        C231   1.410       .  S
O187        C197   1.271   1_655  A
O187        V675   1.929       .  S
O188        C198   1.274       .  A
O188        V195   1.952       .  S
O189        C199   1.259       .  A
O189        V195   1.894       .  S
O190        C200   1.260       .  A
O190        V195   1.879       .  S
O191        C680   1.258       .  A
O191        V196   1.885   1_455  S
O192        C679   1.259       .  A
O192        V196   1.868       .  S
O193        C198   1.271       .  A
O193        V676   1.915       .  S
O194        C197   1.263       .  A
O194        V196   1.901   1_455  S
V195        O667   1.944       .  S
V195        V676   2.088       .  T
V196        O673   1.904       .  S
V196        V675   2.088       .  T
C199        O672   1.258       .  A
C199        C240   1.413       .  S
C200        O671   1.256       .  A
C200        C238   1.405       .  S
O201        C211   1.275       .  A
O201        V209   1.942       .  S
O202        C212   1.278   1_565  A
O202        V449   1.954       .  S
O203        C213   1.253       .  A
O203        V209   1.872       .  S
O204        C214   1.257       .  A
O204        V209   1.872       .  S
O205        C454   1.256       .  A
O205        V210   1.860       .  S
O206        C453   1.253       .  A
O206        V210   1.873       .  S
O207        C212   1.278       .  A
O207        V210   1.959   1_545  S
O208        C211   1.265       .  A
O208        V450   1.913       .  S
V209        O442   1.952       .  S
V209        V450   2.088       .  T
V210        O448   1.939       .  S
V210        V449   2.084       .  T
C213        O446   1.260       .  A
C213        C230   1.399       .  S
C214        O445   1.261       .  A
C214        C232   1.413       .  S
O215        C225   1.277   1_554  A
O216        C226   1.273       .  A
O216        V223   1.923       .  S
O217        V223   1.875       .  S
O218        V223   1.861       .  S
O219        C228   1.258   1_556  A
O219        V224   1.868       .  S
O220        C227   1.254   1_556  A
O220        V224   1.878       .  S
O221        C226   1.273       .  A
O222        C225   1.273       .  A
O222        V224   1.920       .  S
C231        C232   1.190       .  T
C233        C714   1.186   1_455  T
C234        C713   1.193       .  T
C235        C236   1.184       .  T
C237        C958   1.189   1_545  T
C238        C957   1.185       .  T
C239        C720   1.187       .  T
C240        C719   1.191       .  T
C241        N242   1.373       .  A
C241        N246   1.370       .  A
C241        C345   1.512       .  S
N242        C243   1.375       .  A
C243        N244   1.373       .  A
C243        C276   1.506       .  S
N244        C245   1.366       .  A
C245        N246   1.368       .  A
C245        C332   1.513       .  S
C247        N248   1.378       .  A
C247        N252   1.380       .  A
C247        C346   1.525       .  S
N248        C249   1.372       .  A
C249        N250   1.361       .  A
C249        C305   1.507       .  S
N250        C251   1.362       .  A
C251        N252   1.378       .  A
C251        C318   1.511       .  S
C253        N254   1.386       .  A
C253        N258   1.378       .  A
C253        C331   1.526       .  S
N254        C255   1.379       .  A
C255        N256   1.358       .  A
C255        C292   1.519       .  S
N256        C257   1.356       .  A
C257        N258   1.370       .  A
C257        C317   1.501       .  S
C259        N260   1.390       .  A
C259        N264   1.382       .  A
C259        C306   1.541       .  S
N260        C261   1.384       .  A
C261        N262   1.360       .  A
C261        C291   1.529       .  S
N262        C263   1.359       .  A
C263        N264   1.376       .  A
C263        C275   1.516       .  S
O265        C275   1.272       .  A
O265        V753   1.921       .  S
O266        C276   1.269       .  A
O266        V273   1.923       .  S
O267        C757   1.260       .  A
O267        V273   1.877       .  S
O268        C758   1.258       .  A
O268        V273   1.888       .  S
O269        C278   1.260   1_455  A
O269        V274   1.876       .  S
O270        C277   1.258       .  A
O270        V274   1.891       .  S
O271        C276   1.273       .  A
O271        V754   1.936       .  S
O272        C275   1.273       .  A
O272        V274   1.947       .  S
V273        O745   1.917       .  S
V273        V754   2.088       .  T
V274        O751   1.943       .  S
V274        V753   2.086       .  T
C277        O747   1.260       .  A
C277        C359   1.411       .  S
C278        O748   1.256       .  A
C278        C357   1.406       .  S
O279        C409   1.258       .  A
O279        V287   1.861       .  S
O280        C410   1.255       .  A
O280        V287   1.881       .  S
O281        C291   1.276       .  A
O281        V407   1.960   1_554  S
O282        C292   1.271       .  A
O282        V287   1.916       .  S
O283        C292   1.276       .  A
O283        V408   1.956       .  S
O284        C291   1.273       .  A
O284        V288   1.924       .  S
O285        C290   1.255   1_554  A
O285        V288   1.878       .  S
O286        C289   1.258   1_554  A
O286        V288   1.869       .  S
V287        O401   1.925       .  S
V287        V408   2.087       .  T
V288        O403   1.925   1_554  S
V288        V407   2.087   1_554  T
C289        O399   1.260       .  A
C289        C353   1.414   1_556  S
C290        O400   1.262       .  A
C290        C355   1.413       .  S
O293        V301   1.880       .  S
O294        V301   1.865       .  S
O295        C305   1.269       .  A
O296        C306   1.275       .  A
O296        V301   1.951       .  S
O297        C306   1.278       .  A
O298        C305   1.273       .  A
O298        V302   1.937       .  S
O299        C304   1.256       .  A
O299        V302   1.863       .  S
O300        C303   1.252       .  A
O300        V302   1.873       .  S
C303        C349   1.399       .  S
C304        C351   1.411       .  S
O307        C317   1.267       .  A
O307        V795   1.903       .  S
O308        C318   1.269       .  A
O308        V315   1.925       .  S
O309        C319   1.258       .  A
O309        V315   1.865       .  S
O310        C320   1.257       .  A
O310        V315   1.886       .  S
O311        C800   1.259   1_455  A
O311        V316   1.878       .  S
O312        C799   1.257       .  A
O312        V316   1.890       .  S
O313        C318   1.274       .  A
O313        V796   1.943       .  S
O314        C317   1.272       .  A
O314        V316   1.942       .  S
V315        O787   1.923       .  S
V315        V796   2.087       .  T
V316        O793   1.937       .  S
V316        V795   2.089       .  T
C319        O792   1.256       .  A
C319        C360   1.403       .  S
C320        O791   1.260       .  A
C320        C358   1.407       .  S
O321        C331   1.271       .  A
O321        V329   1.934   1_565  S
O322        C332   1.273       .  A
O323        C333   1.261       .  A
O323        V329   1.870       .  S
O324        C334   1.260   1_565  A
O324        V329   1.897   1_565  S
O325        V330   1.868       .  S
O326        V330   1.888       .  S
O327        C332   1.271       .  A
O327        V330   1.932       .  S
O328        C331   1.277   1_545  A
C333        C350   1.403       .  S
C334        C352   1.414       .  S
O335        C345   1.270       .  A
O335        V463   1.927       .  S
O336        C346   1.276       .  A
O336        V343   1.946   1_554  S
O337        C467   1.257       .  A
O337        V343   1.854       .  S
O338        C468   1.254   1_554  A
O338        V343   1.880   1_554  S
O339        C348   1.256       .  A
O339        V344   1.885       .  S
O340        C347   1.260       .  A
O340        V344   1.877       .  S
O341        C346   1.272   1_556  A
O341        V464   1.938       .  S
O342        C345   1.273       .  A
O342        V344   1.939       .  S
V343        O455   1.946       .  S
V343        V464   2.086       .  T
V344        O461   1.939       .  S
V344        V463   2.089       .  T
C347        O457   1.255       .  A
C347        C476   1.404       .  S
C348        O458   1.258       .  A
C348        C474   1.401       .  S
C349        C470   1.181   1_554  T
C350        C469   1.185       .  T
C351        C352   1.192   1_565  T
C353        C834   1.192   1_455  T
C354        C468   1.407       .  S
C354        C833   1.186       .  T
C355        C356   1.187       .  T
C356        C467   1.401       .  S
C357        C598   1.186       .  T
C358        C597   1.188   1_565  T
C359        C840   1.188       .  T
C360        C839   1.187       .  T
C361        N362   1.361       .  A
C361        N366   1.372       .  A
C361        C465   1.517       .  S
N362        C363   1.362       .  A
C363        N364   1.376       .  A
C363        C396   1.509       .  S
N364        C365   1.380       .  A
C365        N366   1.380       .  A
C365        C452   1.523       .  S
C367        N368   1.372       .  A
C367        N372   1.365       .  A
C367        C466   1.511       .  S
N368        C369   1.377       .  A
C369        N370   1.381       .  A
C369        C425   1.520       .  S
N370        C371   1.373       .  A
C371        N372   1.364       .  A
C371        C438   1.516       .  S
C373        N374   1.369       .  A
C373        N378   1.364       .  A
C373        C451   1.517       .  S
N374        C375   1.375       .  A
C375        N376   1.377       .  A
C375        C412   1.518       .  S
N376        C377   1.377       .  A
C377        N378   1.369       .  A
C377        C437   1.506       .  S
C379        N380   1.364       .  A
C379        N384   1.360       .  A
C379        C426   1.494       .  S
N380        C381   1.368       .  A
C381        N382   1.381       .  A
C381        C411   1.515       .  S
N382        C383   1.381       .  A
C383        N384   1.364       .  A
C383        C395   1.509       .  S
O385        C395   1.275   1_655  A
O385        V873   1.942       .  S
O386        C396   1.272       .  A
O386        V393   1.941       .  S
O387        C877   1.256       .  A
O387        V393   1.886       .  S
O388        C878   1.260       .  A
O388        V393   1.876       .  S
O389        C398   1.257       .  A
O389        V394   1.888   1_455  S
O390        C397   1.259       .  A
O390        V394   1.866       .  S
O391        C396   1.271       .  A
O391        V874   1.918       .  S
O392        C395   1.268       .  A
O392        V394   1.925   1_455  S
V393        O865   1.928       .  S
V393        V874   2.089       .  T
V394        O871   1.915       .  S
V394        V873   2.088       .  T
C397        O867   1.257       .  A
C397        C479   1.408       .  S
C398        O868   1.259   1_455  A
C398        C477   1.408       .  S
O399        V407   1.897       .  S
O400        V407   1.880       .  S
O401        C411   1.268       .  A
O402        C412   1.276       .  A
O402        V407   1.948       .  S
O403        C412   1.269       .  A
O404        C411   1.277       .  A
O404        V408   1.947       .  S
O405        C410   1.259       .  A
O405        V408   1.871       .  S
O406        C409   1.257       .  A
O406        V408   1.893       .  S
C409        C473   1.407       .  S
C410        C475   1.401       .  S
O413        V421   1.883       .  S
O414        V421   1.866       .  S
O415        C425   1.271   1_545  A
O416        C426   1.269       .  A
O416        V421   1.924       .  S
O417        C426   1.269       .  A
O418        C425   1.275       .  A
O418        V422   1.941   1_565  S
O419        C424   1.254       .  A
O419        V422   1.873   1_565  S
O420        C423   1.256       .  A
O420        V422   1.865       .  S
C423        C469   1.404       .  S
C424        C471   1.401       .  S
O427        C437   1.273   1_655  A
O427        V915   1.937       .  S
O428        C438   1.273       .  A
O428        V435   1.941       .  S
O429        C439   1.256       .  A
O429        V435   1.877       .  S
O430        C440   1.257       .  A
O430        V435   1.869       .  S
O431        C920   1.257       .  A
O431        V436   1.890   1_455  S
O432        C919   1.260       .  A
O432        V436   1.874       .  S
O433        C438   1.272       .  A
O433        V916   1.930       .  S
O434        C437   1.269       .  A
O434        V436   1.923   1_455  S
V435        O907   1.937       .  S
V435        V916   2.083       .  T
V436        O913   1.919       .  S
V436        V915   2.088       .  T
C439        O912   1.261       .  A
C439        C480   1.408       .  S
C440        O911   1.258       .  A
C440        C478   1.403       .  S
O441        C451   1.272       .  A
O441        V449   1.936       .  S
O442        C452   1.278       .  A
O443        C453   1.260       .  A
O443        V449   1.869       .  S
O444        C454   1.257       .  A
O444        V449   1.887       .  S
O445        V450   1.897       .  S
O446        V450   1.875       .  S
O447        C452   1.269       .  A
O447        V450   1.921       .  S
O448        C451   1.274       .  A
C453        C470   1.396       .  S
C454        C472   1.396       .  S
O455        C465   1.274       .  A
O456        C466   1.271       .  A
O456        V463   1.923       .  S
O457        V463   1.878       .  S
O458        V463   1.863       .  S
O459        C468   1.261       .  A
O459        V464   1.871       .  S
O460        C467   1.256       .  A
O460        V464   1.890       .  S
O461        C466   1.272       .  A
O462        C465   1.272       .  A
O462        V464   1.926       .  S
C471        C472   1.183       .  T
C473        C954   1.189   1_455  T
C474        C953   1.183       .  T
C475        C476   1.185       .  T
C477        C718   1.189       .  T
C478        C717   1.183   1_565  T
C479        C960   1.188       .  T
C480        C959   1.187       .  T
C481        N482   1.377       .  A
C481        N486   1.370       .  A
C481        C585   1.501       .  S
N482        C483   1.374       .  A
C483        N484   1.359       .  A
C483        C516   1.499       .  S
N484        C485   1.358       .  A
C485        N486   1.364       .  A
C485        C572   1.487       .  S
C487        N488   1.368       .  A
C487        N492   1.371       .  A
C487        C586   1.505       .  S
N488        C489   1.367       .  A
C489        N490   1.365       .  A
C489        C545   1.506       .  S
N490        C491   1.371       .  A
C491        N492   1.372       .  A
C491        C558   1.499       .  S
C493        N494   1.393       .  A
C493        N498   1.387       .  A
C493        C571   1.554       .  S
N494        C495   1.387       .  A
C495        N496   1.359       .  A
C495        C532   1.533       .  S
N496        C497   1.359       .  A
C497        N498   1.381       .  A
C497        C557   1.525       .  S
C499        N500   1.385       .  A
C499        N504   1.380       .  A
C499        C546   1.524       .  S
N500        C501   1.377       .  A
C501        N502   1.357       .  A
C501        C531   1.515       .  S
N502        C503   1.355       .  A
C503        N504   1.371       .  A
C503        C515   1.504       .  S
O505        C515   1.268       .  A
O506        C516   1.267       .  A
O506        V513   1.914   1_655  S
O507        V513   1.868       .  S
O508        V513   1.892   1_655  S
O509        C518   1.259       .  A
O509        V514   1.876       .  S
O510        C517   1.257       .  A
O510        V514   1.890       .  S
O511        C516   1.273       .  A
O512        C515   1.272       .  A
O512        V514   1.943       .  S
C517        C599   1.409       .  S
C518        C597   1.407       .  S
O519        C649   1.258       .  A
O519        V527   1.867       .  S
O520        C650   1.255       .  A
O520        V527   1.880       .  S
O521        C531   1.275       .  A
O521        V647   1.954   1_554  S
O522        C532   1.276       .  A
O522        V527   1.931       .  S
O523        C532   1.275       .  A
O523        V648   1.957       .  S
O524        C531   1.270       .  A
O524        V528   1.913       .  S
O525        C530   1.254   1_554  A
O525        V528   1.873       .  S
O526        C529   1.258   1_554  A
O526        V528   1.864       .  S
V527        O641   1.933       .  S
V527        V648   2.085       .  T
V528        O643   1.920   1_554  S
V528        V647   2.087   1_554  T
C529        O639   1.260       .  A
C529        C593   1.414       .  S
C530        O640   1.260       .  A
C530        C595   1.400   1_556  S
O533        C783   1.260       .  A
O533        V541   1.868       .  S
O534        C784   1.258   1_545  A
O534        V541   1.894   1_545  S
O535        C545   1.273       .  A
O535        V781   1.937       .  S
O536        C546   1.273       .  A
O536        V541   1.937   1_545  S
O537        C546   1.275   1_565  A
O537        V782   1.942       .  S
O538        C545   1.268       .  A
O538        V542   1.923       .  S
O539        C544   1.259       .  A
O539        V542   1.871       .  S
O540        C543   1.257       .  A
O540        V542   1.885       .  S
V541        O775   1.917       .  S
V541        V782   2.086       .  T
V542        O777   1.924       .  S
V542        V781   2.089       .  T
C543        O773   1.257       .  A
C543        C589   1.402       .  S
C544        O774   1.255       .  A
C544        C591   1.401       .  S
O547        C557   1.274       .  A
O548        C558   1.267       .  A
O548        V555   1.916   1_655  S
O549        C559   1.259       .  A
O549        V555   1.869       .  S
O550        C560   1.257       .  A
O550        V555   1.885   1_655  S
O551        V556   1.872       .  S
O552        V556   1.890       .  S
O553        C558   1.273   1_455  A
O554        C557   1.274       .  A
O554        V556   1.952       .  S
C559        C600   1.402       .  S
C560        C598   1.402       .  S
O561        C571   1.280       .  A
O561        V569   1.965       .  S
O562        C572   1.266       .  A
O562        V809   1.912       .  S
O563        C573   1.253       .  A
O563        V569   1.877       .  S
O564        C574   1.257       .  A
O564        V569   1.861       .  S
O565        C814   1.259       .  A
O565        V570   1.874       .  S
O566        C813   1.254       .  A
O566        V570   1.877       .  S
O567        C572   1.270       .  A
O567        V570   1.926       .  S
O568        C571   1.278       .  A
O568        V810   1.957       .  S
V569        O802   1.944       .  S
V569        V810   2.085       .  T
V570        O808   1.937   1_545  S
V570        V809   2.090       .  T
C573        O806   1.260       .  A
C573        C590   1.399       .  S
C574        O805   1.256       .  A
C574        C592   1.397       .  S
O575        C585   1.270       .  A
O575        V703   1.926       .  S
O576        C586   1.274       .  A
O576        V583   1.940       .  S
O577        C707   1.261       .  A
O577        V583   1.881       .  S
O578        C708   1.258       .  A
O578        V583   1.894       .  S
O579        C588   1.255       .  A
O579        V584   1.882       .  S
O580        C587   1.259       .  A
O580        V584   1.856       .  S
O581        C586   1.268       .  A
O581        V704   1.920       .  S
O582        C585   1.270       .  A
O582        V584   1.928       .  S
V583        O695   1.941       .  S
V583        V704   2.085       .  T
V584        O701   1.923       .  S
V584        V703   2.090       .  T
C587        O697   1.256       .  A
C587        C716   1.407       .  S
C588        O698   1.259       .  A
C588        C714   1.403       .  S
C589        C710   1.184   1_554  T
C590        C709   1.182       .  T
C591        C592   1.183       .  T
C594        C708   1.406       .  S
C595        C596   1.183       .  T
C596        C707   1.401       .  S
C601        N602   1.366       .  A
C601        N606   1.376       .  A
C601        C705   1.509       .  S
N602        C603   1.362       .  A
C603        N604   1.372       .  A
C603        C636   1.518       .  S
N604        C605   1.380       .  A
C605        N606   1.377       .  A
C605        C692   1.522       .  S
C607        N608   1.365       .  A
C607        N612   1.364       .  A
C607        C706   1.501       .  S
N608        C609   1.370       .  A
C609        N610   1.368       .  A
C609        C665   1.493       .  S
N610        C611   1.364       .  A
C611        N612   1.366       .  A
C611        C678   1.490       .  S
C613        N614   1.367       .  A
C613        N618   1.362       .  A
C613        C691   1.504       .  S
N614        C615   1.372       .  A
C615        N616   1.379       .  A
C615        C652   1.514       .  S
N616        C617   1.378       .  A
C617        N618   1.366       .  A
C617        C677   1.509       .  S
C619        N620   1.367       .  A
C619        N624   1.368       .  A
C619        C666   1.516       .  S
N620        C621   1.372       .  A
C621        N622   1.380       .  A
C621        C651   1.523       .  S
N622        C623   1.381       .  A
C623        N624   1.372       .  A
C623        C635   1.520       .  S
O625        C635   1.273       .  A
O626        C636   1.272       .  A
O626        V633   1.941       .  S
O627        V633   1.885       .  S
O628        V633   1.870       .  S
O629        C638   1.253       .  A
O629        V634   1.879       .  S
O630        C637   1.258       .  A
O630        V634   1.866       .  S
O631        C636   1.273       .  A
O632        C635   1.273       .  A
O632        V634   1.939       .  S
C637        C719   1.411       .  S
C638        C717   1.400       .  S
O639        V647   1.901       .  S
O640        V647   1.878       .  S
O641        C651   1.272       .  A
O642        C652   1.277       .  A
O642        V647   1.949       .  S
O643        C652   1.267       .  A
O644        C651   1.276       .  A
O644        V648   1.948       .  S
O645        C650   1.263       .  A
O645        V648   1.882       .  S
O646        C649   1.260       .  A
O646        V648   1.899       .  S
C649        C713   1.417       .  S
C650        C715   1.416       .  S
O653        C903   1.259       .  A
O653        V661   1.867       .  S
O654        C904   1.254       .  A
O654        V661   1.877       .  S
O655        C665   1.272       .  A
O655        V901   1.931       .  S
O656        C666   1.273       .  A
O656        V661   1.934       .  S
O657        C666   1.273       .  A
O657        V902   1.936       .  S
O658        C665   1.266       .  A
O658        V662   1.907       .  S
O659        C664   1.261       .  A
O659        V662   1.896       .  S
O660        C663   1.261       .  A
O660        V662   1.873       .  S
V661        O895   1.947       .  S
V661        V902   2.083       .  T
V662        O897   1.908       .  S
V662        V901   2.090       .  T
C663        O893   1.253       .  A
C663        C709   1.400       .  S
C664        O894   1.256       .  A
C664        C711   1.408       .  S
O667        C677   1.275       .  A
O668        C678   1.271       .  A
O668        V675   1.928       .  S
O669        C679   1.257       .  A
O669        V675   1.888       .  S
O670        C680   1.261   1_655  A
O670        V675   1.883       .  S
O671        V676   1.882       .  S
O672        V676   1.871       .  S
O673        C678   1.265       .  A
O674        C677   1.268       .  A
O674        V676   1.922       .  S
C679        C720   1.405       .  S
C680        C718   1.412       .  S
O681        C691   1.271       .  A
O681        V689   1.933       .  S
O682        C692   1.268   1_565  A
O682        V929   1.919       .  S
O683        C693   1.255       .  A
O683        V689   1.882       .  S
O684        C694   1.259       .  A
O684        V689   1.872       .  S
O685        C934   1.252       .  A
O685        V690   1.869   1_545  S
O686        C933   1.256       .  A
O686        V690   1.864       .  S
O687        C692   1.279       .  A
O687        V690   1.955   1_545  S
O688        C691   1.270       .  A
O688        V930   1.928       .  S
V689        O922   1.952       .  S
V689        V930   2.087       .  T
V690        O928   1.947       .  S
V690        V929   2.089       .  T
C693        O926   1.260       .  A
C693        C710   1.404       .  S
C694        O925   1.258       .  A
C694        C712   1.412       .  S
O695        C705   1.273   1_554  A
O696        C706   1.271       .  A
O696        V703   1.925       .  S
O697        V703   1.893       .  S
O698        V703   1.868       .  S
O699        C708   1.257       .  A
O699        V704   1.858       .  S
O700        C707   1.254   1_556  A
O700        V704   1.873   1_556  S
O701        C706   1.269       .  A
O702        C705   1.270       .  A
O702        V704   1.918   1_556  S
C711        C712   1.190       .  T
C715        C716   1.188       .  T
C721        N722   1.377       .  A
C721        N726   1.373       .  A
C721        C825   1.517       .  S
N722        C723   1.378       .  A
C723        N724   1.372       .  A
C723        C756   1.513       .  S
N724        C725   1.366       .  A
C725        N726   1.368       .  A
C725        C812   1.520       .  S
C727        N728   1.373       .  A
C727        N732   1.377       .  A
C727        C826   1.513       .  S
N728        C729   1.368       .  A
C729        N730   1.355       .  A
C729        C785   1.492       .  S
N730        C731   1.359       .  A
C731        N732   1.376       .  A
C731        C798   1.493       .  S
C733        N734   1.375       .  A
C733        N738   1.375       .  A
C733        C811   1.513       .  S
N734        C735   1.367       .  A
C735        N736   1.363       .  A
C735        C772   1.510       .  S
N736        C737   1.369       .  A
C737        N738   1.375       .  A
C737        C797   1.513       .  S
C739        N740   1.383       .  A
C739        N744   1.374       .  A
C739        C786   1.518       .  S
N740        C741   1.379       .  A
C741        N742   1.363       .  A
C741        C771   1.516       .  S
N742        C743   1.360       .  A
C743        N744   1.364       .  A
C743        C755   1.501       .  S
O745        C755   1.269       .  A
O746        C756   1.270       .  A
O746        V753   1.927   1_655  S
O747        V753   1.872       .  S
O748        V753   1.882   1_655  S
O749        C758   1.258       .  A
O749        V754   1.870       .  S
O750        C757   1.256       .  A
O750        V754   1.884       .  S
O751        C756   1.275   1_455  A
O752        C755   1.272       .  A
O752        V754   1.933       .  S
C757        C839   1.408       .  S
C758        C837   1.407       .  S
O759        C889   1.261       .  A
O759        V767   1.871       .  S
O760        C890   1.258       .  A
O760        V767   1.896       .  S
O761        C771   1.273   1_556  A
O761        V887   1.947       .  S
O762        C772   1.271       .  A
O762        V767   1.925       .  S
O763        C772   1.271       .  A
O763        V888   1.934       .  S
O764        C771   1.271       .  A
O764        V768   1.921   1_554  S
O765        C770   1.253   1_554  A
O765        V768   1.874   1_554  S
O766        C769   1.257       .  A
O766        V768   1.858       .  S
V767        O881   1.930       .  S
V767        V888   2.089       .  T
V768        O883   1.924       .  S
V768        V887   2.088       .  T
C769        O879   1.257       .  A
C769        C833   1.404       .  S
C770        O880   1.261       .  A
C770        C835   1.401       .  S
O773        V781   1.865       .  S
O774        V781   1.879       .  S
O775        C785   1.268       .  A
O776        C786   1.274       .  A
O776        V781   1.945       .  S
O777        C786   1.272       .  A
O778        C785   1.270       .  A
O778        V782   1.928       .  S
O779        C784   1.259       .  A
O779        V782   1.868       .  S
O780        C783   1.254       .  A
O780        V782   1.879       .  S
C783        C829   1.403       .  S
C784        C831   1.408   1_565  S
O787        C797   1.270       .  A
O788        C798   1.264       .  A
O788        V795   1.909   1_655  S
O789        C799   1.259       .  A
O789        V795   1.867       .  S
O790        C800   1.259       .  A
O790        V795   1.891   1_655  S
O791        V796   1.878       .  S
O792        V796   1.887       .  S
O793        C798   1.274   1_455  A
O794        C797   1.275       .  A
O794        V796   1.945       .  S
C799        C840   1.408       .  S
C800        C838   1.413       .  S
O801        C811   1.269       .  A
O801        V809   1.922   1_565  S
O802        C812   1.275       .  A
O803        C813   1.258       .  A
O803        V809   1.867       .  S
O804        C814   1.259   1_565  A
O804        V809   1.890   1_565  S
O805        V810   1.884       .  S
O806        V810   1.868       .  S
O807        C812   1.272       .  A
O807        V810   1.936       .  S
O808        C811   1.274       .  A
C813        C830   1.396       .  S
C814        C832   1.412       .  S
O815        C825   1.270       .  A
O815        V943   1.925       .  S
O816        C826   1.276       .  A
O816        V823   1.945       .  S
O817        C947   1.260   1_554  A
O817        V823   1.877       .  S
O818        C948   1.259       .  A
O818        V823   1.897       .  S
O819        C828   1.258       .  A
O819        V824   1.889       .  S
O820        C827   1.261       .  A
O820        V824   1.877       .  S
O821        C826   1.268       .  A
O821        V944   1.925   1_554  S
O822        C825   1.275       .  A
O822        V824   1.945       .  S
V823        O935   1.952   1_554  S
V823        V944   2.088   1_554  T
V824        O941   1.947       .  S
V824        V943   2.087       .  T
C827        O937   1.258       .  A
C827        C956   1.418       .  S
C828        O938   1.260       .  A
C828        C954   1.415       .  S
C829        C950   1.185   1_554  T
C830        C949   1.181       .  T
C831        C832   1.189       .  T
C834        C948   1.412       .  S
C835        C836   1.183       .  T
C836        C947   1.401       .  S
C841        N842   1.358       .  A
C841        N846   1.380       .  A
C841        C945   1.521       .  S
N842        C843   1.358       .  A
C843        N844   1.376       .  A
C843        C876   1.514       .  S
N844        C845   1.384       .  A
C845        N846   1.387       .  A
C845        C932   1.539       .  S
C847        N848   1.378       .  A
C847        N852   1.361       .  A
C847        C946   1.519       .  S
N848        C849   1.384       .  A
C849        N850   1.381       .  A
C849        C905   1.531       .  S
N850        C851   1.375       .  A
C851        N852   1.361       .  A
C851        C918   1.511       .  S
C853        N854   1.364       .  A
C853        N858   1.367       .  A
C853        C931   1.507       .  S
N854        C855   1.367       .  A
C855        N856   1.376       .  A
C855        C892   1.511       .  S
N856        C857   1.378       .  A
C857        N858   1.374       .  A
C857        C917   1.513       .  S
C859        N860   1.368       .  A
C859        N864   1.358       .  A
C859        C906   1.491       .  S
N860        C861   1.374       .  A
C861        N862   1.374       .  A
C861        C891   1.506       .  S
N862        C863   1.372       .  A
C863        N864   1.357       .  A
C863        C875   1.493       .  S
O865        C875   1.270       .  A
O866        C876   1.274       .  A
O866        V873   1.949       .  S
O867        V873   1.891       .  S
O868        V873   1.876       .  S
O869        C878   1.255       .  A
O869        V874   1.882       .  S
O870        C877   1.257       .  A
O870        V874   1.862       .  S
O871        C876   1.270       .  A
O872        C875   1.268       .  A
O872        V874   1.918       .  S
C877        C959   1.401       .  S
C878        C957   1.403       .  S
O879        V887   1.891       .  S
O880        V887   1.879       .  S
O881        C891   1.270       .  A
O882        C892   1.274       .  A
O882        V887   1.943       .  S
O883        C892   1.269       .  A
O884        C891   1.272       .  A
O884        V888   1.932       .  S
O885        C890   1.257       .  A
O885        V888   1.851       .  S
O886        C889   1.252       .  A
O886        V888   1.875       .  S
C889        C953   1.401       .  S
C890        C955   1.406       .  S
O893        V901   1.877       .  S
O894        V901   1.864       .  S
O895        C905   1.275   1_545  A
O896        C906   1.272       .  A
O896        V901   1.932       .  S
O897        C906   1.264       .  A
O898        C905   1.276       .  A
O898        V902   1.950   1_565  S
O899        C904   1.258       .  A
O899        V902   1.864       .  S
O900        C903   1.254       .  A
O900        V902   1.875       .  S
C903        C949   1.396       .  S
C904        C951   1.392       .  S
O907        C917   1.273       .  A
O908        C918   1.272       .  A
O908        V915   1.939       .  S
O909        C919   1.257       .  A
O909        V915   1.888       .  S
O910        C920   1.260   1_655  A
O910        V915   1.873       .  S
O911        V916   1.885       .  S
O912        V916   1.884       .  S
O913        C918   1.272       .  A
O914        C917   1.272       .  A
O914        V916   1.932       .  S
C919        C960   1.411       .  S
C920        C958   1.411       .  S
O921        C931   1.265       .  A
O921        V929   1.915       .  S
O922        C932   1.278       .  A
O923        C933   1.260       .  A
O923        V929   1.891       .  S
O924        C934   1.259   1_565  A
O924        V929   1.871       .  S
O925        V930   1.891       .  S
O926        V930   1.872       .  S
O927        C932   1.275       .  A
O927        V930   1.949       .  S
O928        C931   1.277       .  A
C933        C950   1.405       .  S
C934        C952   1.393       .  S
O935        C945   1.274       .  A
O936        C946   1.273       .  A
O936        V943   1.924       .  S
O937        V943   1.889       .  S
O938        V943   1.877       .  S
O939        C948   1.258   1_556  A
O939        V944   1.864       .  S
O940        C947   1.254       .  A
O940        V944   1.876       .  S
O941        C946   1.273       .  A
O942        C945   1.272       .  A
O942        V944   1.921       .  S
C951        C952   1.179       .  T
C955        C956   1.191       .  T
