geometry optimzed in LAMMPS
_audit_creation_date              2020-11-30 
_audit_creation_method            'lammps2cif' 
_symmetry_space_group_name_H-M    'P1' 
_symmetry_Int_Tables_number       1 
_symmetry_cell_setting            triclinic 
loop_ 
_symmetry_equiv_pos_as_xyz 
  x,y,z 
_cell_length_a                    44.40485122 
_cell_length_b                    43.63257398930595 
_cell_length_c                    41.69852041818563 
_cell_angle_alpha                 90.20457040171266 
_cell_angle_beta                  90.89093253517854 
_cell_angle_gamma                 89.35379333639635 
loop_ 
_atom_site_label 
_atom_site_type_symbol 
_atom_site_fract_x 
_atom_site_fract_y 
_atom_site_fract_z 
_atom_site_charge 
O1          O  0.03451922  0.96263228  0.21611708    -0.74100
O2          O  0.97777883  0.02856126  0.21885732    -0.74100
O3          O  0.03843817  0.02352099  0.22024438    -0.74200
O4          O  0.97362043  0.96654365  0.21457681    -0.74200
O5          O  0.97246188  0.96414774  0.26801713    -0.74100
O6          O  0.03760910  0.02100561  0.27369301    -0.74100
O7          O  0.97675818  0.02537047  0.27229717    -0.74100
O8          O  0.03331818  0.95918332  0.26954399    -0.74200
Ni9        Ni  0.00598264  0.99541050  0.21552443     1.25400
Ni10       Ni  0.00503205  0.99228786  0.27281659     1.25400
C11         C  0.04362998  0.95058346  0.24245777     0.88100
C12         C  0.96811227  0.03783405  0.24600162     0.88000
C13         C  0.04886291  0.03136776  0.24781349     0.88100
C14         C  0.96238608  0.95602358  0.24036866     0.88200
O15         O  0.20875569  0.29482832  0.25375196    -0.80500
O16         O  0.24951275  0.18897042  0.16520175    -0.65200
O17         O  0.23876457  0.23999237  0.23745526    -1.11800
C18         C  0.31430675  0.30029628  0.18901941     1.06300
O19         O  0.29919765  0.19125760  0.16709324    -0.78400
O20         O  0.32591380  0.22489703  0.21405408    -0.66000
Ni21       Ni  0.19878208  0.25204996  0.24969433     1.34900
C22         C  0.31970674  0.23613419  0.24131105     0.85100
O23         O  0.21739648  0.18291628  0.21790772    -0.79000
O24         O  0.18530639  0.21008782  0.24841472    -0.89300
C25         C  0.27495829  0.18111296  0.15476411     0.84700
O26         O  0.18238161  0.26029813  0.20767394    -0.67500
O27         O  0.32272941  0.27564417  0.17510226    -0.86700
C28         C  0.18910055  0.24870525  0.18074302     0.85500
C29         C  0.19434798  0.18505226  0.23566442     1.07100
H30         H  0.25958233  0.25526323  0.16791793     0.38900
O31         O  0.26925282  0.24519858  0.18599256    -1.09400
O32         O  0.29732281  0.25366329  0.24628863    -0.66100
Ni33       Ni  0.26477105  0.27124707  0.22217664     1.26300
O34         O  0.21110204  0.23049410  0.17689036    -0.66300
O35         O  0.29125142  0.30216426  0.20675758    -0.78600
C36         C  0.23263930  0.30539204  0.26653545     0.84900
O37         O  0.25839977  0.29572893  0.25872526    -0.65800
Ni38       Ni  0.30906732  0.23385341  0.17253734     1.27400
Ni39       Ni  0.24352343  0.21365621  0.20165282     1.26100
H40         H  0.24802418  0.23006633  0.25585900     0.39400
O41         O  0.70651815  0.20452590  0.24984420    -0.80500
O42         O  0.81573953  0.24679724  0.16667580    -0.65200
O43         O  0.76254518  0.23275890  0.23575190    -1.11800
C44         C  0.70863728  0.31732142  0.19300293     1.06300
O45         O  0.81583092  0.29745923  0.17147316    -0.78400
O46         O  0.78312474  0.32151241  0.22149235    -0.66000
Ni47       Ni  0.74829220  0.19219008  0.24412848     1.34900
C48         C  0.77039283  0.31460810  0.24758828     0.85100
O49         O  0.81780979  0.20959684  0.21659721    -0.79000
O50         O  0.78866973  0.17564867  0.24174607    -0.89300
C51         C  0.82687909  0.27261776  0.16028205     0.84700
O52         O  0.73957141  0.18037499  0.20047969    -0.68700
O53         O  0.73351069  0.32579299  0.18116800    -0.86700
C54         C  0.75300608  0.18672449  0.17466057     0.85500
C55         C  0.81399341  0.18464490  0.23149465     1.07100
H56         H  0.75023925  0.26102632  0.16769501     0.38900
O57         O  0.76020606  0.26844849  0.18693011    -1.09400
O58         O  0.75173701  0.29283520  0.24984345    -0.66100
Ni59       Ni  0.73367710  0.26258978  0.22211220     1.26300
O60         O  0.77231301  0.20801633  0.17283256    -0.66300
O61         O  0.70517371  0.29237107  0.20790755    -0.78600
C62         C  0.69627839  0.22903805  0.26254881     0.84900
O63         O  0.70799119  0.25477794  0.25715936    -0.65800
Ni64       Ni  0.77394566  0.30927223  0.17802384     1.27400
Ni65       Ni  0.78936038  0.23883588  0.20109124     1.26100
H66         H  0.77243663  0.23979348  0.25515771     0.39400
O67         O  0.81116305  0.69557628  0.17311462    -0.80500
O68         O  0.70089084  0.74186192  0.25050356    -0.65200
O69         O  0.75495139  0.72530145  0.18323004    -1.11800
C70         C  0.80838903  0.80949518  0.22743972     1.06300
O71         O  0.70066171  0.79220037  0.24269493    -0.78400
O72         O  0.73563511  0.81598920  0.19614860    -0.66000
Ni73       Ni  0.76909507  0.68423796  0.17545845     1.34900
C74         C  0.74864286  0.80850589  0.17031550     0.85100
O75         O  0.69931942  0.70236382  0.20206710    -0.79000
O76         O  0.72834485  0.66881965  0.17514444    -0.89300
C77         C  0.68910245  0.76811653  0.25414894     0.84700
O78         O  0.77536691  0.67131938  0.21920359    -0.67500
O79         O  0.78328961  0.81838277  0.23893358    -0.86700
C80         C  0.76264845  0.67938273  0.24506610     0.85500
C81         C  0.70297233  0.67762259  0.18616854     1.07100
H82         H  0.76600668  0.75484489  0.25075363     0.38900
O83         O  0.75631066  0.76202472  0.23123668    -1.09400
O84         O  0.76663089  0.78562231  0.16822826    -0.66100
Ni85       Ni  0.78356819  0.75507369  0.19718936     1.26300
O86         O  0.74465448  0.70227325  0.24664351    -0.66300
O87         O  0.81197137  0.78456809  0.21202205    -0.78600
C88         C  0.82244888  0.71951016  0.16092460     0.84900
O89         O  0.81009748  0.74558289  0.16366753    -0.65800
Ni90       Ni  0.74262507  0.80311334  0.23960722     1.27400
Ni91       Ni  0.72760693  0.73225075  0.21715585     1.26100
H92         H  0.74534816  0.73234230  0.16360297     0.39400
O93         O  0.29655353  0.80040472  0.17155246    -0.80500
O94         O  0.25843567  0.68510971  0.24823898    -0.65200
O95         O  0.26969373  0.74263663  0.18153576    -1.11800
C96         C  0.18689688  0.79301946  0.22851683     1.06300
O97         O  0.20897991  0.68391687  0.24076003    -0.78400
O98         O  0.18472631  0.71879098  0.19475748    -0.66000
Ni99       Ni  0.30894276  0.75786655  0.17242666     1.34900
C100        C  0.19163455  0.73226706  0.16908467     0.85100
O101        O  0.29459055  0.68647381  0.19876568    -0.79000
O102        O  0.32533106  0.71685951  0.17099217    -0.89300
C103        C  0.23325218  0.67262346  0.25225124     0.84700
O104        O  0.32230537  0.76346792  0.21574223    -0.67500
O105        O  0.17893384  0.76668137  0.23810534    -0.86700
C106        C  0.31530691  0.75056578  0.24174461     0.85500
C107        C  0.31778881  0.69091842  0.18207162     1.07100
H108        H  0.24253748  0.75078638  0.25027226     0.38900
O109        O  0.23546039  0.74158281  0.23047989    -1.09400
O110        O  0.21109328  0.75330857  0.16789393    -0.66100
Ni111      Ni  0.24027701  0.77068395  0.19706862     1.26300
O112        O  0.29438406  0.73112389  0.24385893    -0.66300
O113        O  0.21089224  0.79806657  0.21340086    -0.78600
C114        C  0.27222841  0.81192479  0.16033787     0.84900
O115        O  0.24711597  0.79920705  0.16404742    -0.65800
Ni116      Ni  0.19607464  0.72604447  0.23837453     1.27400
Ni117      Ni  0.26506388  0.71364162  0.21503285     1.26100
H118        H  0.26233900  0.73329363  0.16193706     0.39400
O119        O  0.30461952  0.95324729  0.93573318    -0.74100
O120        O  0.30564539  0.03157770  0.97644541    -0.74100
O121        O  0.30531345  0.97312659  0.99693891    -0.74200
O122        O  0.30505260  0.01193779  0.91482736    -0.74200
O123        O  0.25477344  0.01263068  0.91417250    -0.74100
O124        O  0.25502172  0.97425314  0.99627005    -0.74100
O125        O  0.25533986  0.03245057  0.97559398    -0.74100
O126        O  0.25432123  0.95398189  0.93538201    -0.74200
Ni127      Ni  0.30697776  0.99246840  0.95589389     1.25400
Ni128      Ni  0.25306377  0.99341376  0.95523806     1.25400
C129        C  0.27936369  0.94053529  0.92945848     0.88100
C130        C  0.28055466  0.04438817  0.98352638     0.88000
C131        C  0.28012804  0.96714204  0.00992364     0.88100
C132        C  0.27989186  0.01892764  0.90118585     0.88200
O133        O  0.98835290  0.30094139  0.99167507    -0.74100
O134        O  0.04906844  0.29808180  0.92653397    -0.74100
O135        O  0.98809493  0.29879145  0.92646761    -0.74200
O136        O  0.04930958  0.30053198  0.99195676    -0.74200
O137        O  0.05010849  0.24936716  0.99268582    -0.74100
O138        O  0.98752748  0.24770237  0.92865035    -0.74100
O139        O  0.04865781  0.24699242  0.92820675    -0.74100
O140        O  0.98903627  0.24987071  0.99373019    -0.74200
Ni141      Ni  0.01869360  0.30142465  0.95907317     1.25400
Ni142      Ni  0.01878454  0.24667733  0.96086803     1.25400
C143        C  0.97895459  0.27580607  0.00363852     0.88100
C144        C  0.05891226  0.27194470  0.91680544     0.88000
C145        C  0.97776894  0.27303990  0.91681625     0.88100
C146        C  0.05982454  0.27517274  0.00293736     0.88200
O147        O  0.70815203  0.03023341  0.92868974    -0.74100
O148        O  0.70905156  0.96899974  0.99548401    -0.74100
O149        O  0.70826630  0.03133266  0.99475695    -0.74200
O150        O  0.70880034  0.96830423  0.92963598    -0.74200
O151        O  0.75902292  0.96746437  0.93078043    -0.74100
O152        O  0.75845610  0.03166957  0.99459836    -0.74100
O153        O  0.75925419  0.96903193  0.99594440    -0.74100
O154        O  0.75836413  0.02999038  0.92940490    -0.74200
Ni155      Ni  0.70678306  0.99972390  0.96216281     1.25400
Ni156      Ni  0.76052585  0.99955535  0.96274605     1.25400
C157        C  0.73319174  0.03988823  0.91778888     0.88100
C158        C  0.73436595  0.95888830  0.00664157     0.88000
C159        C  0.73336567  0.04192596  0.00537830     0.88100
C160        C  0.73391689  0.95770403  0.91931765     0.88200
O161        O  0.04352356  0.67974044  0.99077738    -0.74100
O162        O  0.97567772  0.68209561  0.93220839    -0.74100
O163        O  0.03610236  0.68138442  0.92600059    -0.74200
O164        O  0.98278566  0.68045577  0.99726437    -0.74200
O165        O  0.98326413  0.73160543  0.99836320    -0.74100
O166        O  0.03660528  0.73256480  0.92818881    -0.74100
O167        O  0.97625605  0.73321211  0.93388178    -0.74100
O168        O  0.04362141  0.73089841  0.99171293    -0.74200
Ni169      Ni  0.00945514  0.67900262  0.96154086     1.25400
Ni170      Ni  0.00981678  0.73383015  0.96312083     1.25400
C171        C  0.05499628  0.70509463  0.00031877     0.88100
C172        C  0.96523756  0.70818299  0.92301151     0.88000
C173        C  0.04538931  0.70722373  0.91590865     0.88100
C174        C  0.97449666  0.70605633  0.00960968     0.88200
O175        O  0.29701016  0.77242661  0.77243743    -0.80500
O176        O  0.25940341  0.71221082  0.64301838    -0.65200
O177        O  0.27202048  0.76951072  0.71004655    -1.11800
C178        C  0.18747122  0.72031648  0.75390462     1.06300
O179        O  0.21072019  0.72343961  0.64079549    -0.78400
O180        O  0.18231845  0.75867208  0.68424078    -0.66000
Ni181      Ni  0.31115032  0.77492309  0.72895485     1.34900
C182        C  0.18979742  0.78284972  0.69921233     0.85100
O183        O  0.29724662  0.75754549  0.65134415    -0.79000
O184        O  0.32899478  0.77910043  0.68725837    -0.89300
C185        C  0.23422788  0.71188748  0.62845105     0.84700
O186        O  0.32345184  0.73272993  0.73133055    -0.67500
O187        O  0.18107670  0.71041261  0.72581823    -0.86700
C188        C  0.31694557  0.70960617  0.71410288     0.85500
C189        C  0.32140539  0.77125663  0.65877734     1.07100
H190        H  0.24334298  0.70476889  0.71124558     0.38900
O191        O  0.23649454  0.72424926  0.70273870    -1.09400
O192        O  0.21241186  0.78387749  0.71842630    -0.66100
Ni193      Ni  0.24086374  0.75376078  0.73583651     1.26300
O194        O  0.29608108  0.71016192  0.69271304    -0.66300
O195        O  0.20995610  0.73697686  0.76078543    -0.78600
C196        C  0.27286727  0.78349968  0.78399989     0.84900
O197        O  0.24795584  0.78242574  0.76897420    -0.65800
Ni198      Ni  0.19752490  0.71750325  0.68412183     1.27400
Ni199      Ni  0.26707415  0.74039334  0.67657070     1.26100
H200        H  0.26572304  0.78925675  0.70175790     0.39400
O201        O  0.97924179  0.96012520  0.71861978    -0.74100
O202        O  0.04039252  0.02127571  0.71408477    -0.74100
O203        O  0.97913443  0.02268137  0.71700253    -0.74200
O204        O  0.04041657  0.95946792  0.71578748    -0.74200
O205        O  0.03718215  0.95758311  0.66239841    -0.74100
O206        O  0.97556050  0.02075809  0.66363518    -0.74100
O207        O  0.03671831  0.02047084  0.66063733    -0.74100
O208        O  0.97610870  0.95904922  0.66515897    -0.74200
Ni209      Ni  0.00986451  0.99094883  0.71826097     1.25400
Ni210      Ni  0.00639313  0.98942199  0.66104327     1.25400
C211        C  0.96750944  0.94973723  0.69256099     0.88100
C212        C  0.04852955  0.03089618  0.68662307     0.88000
C213        C  0.96700566  0.03189031  0.69056075     0.88100
C214        C  0.04886718  0.94807079  0.68897982     0.88200
O215        O  0.30428039  0.18722014  0.74127575    -0.80500
O216        O  0.25404488  0.30200567  0.66656161    -0.65200
O217        O  0.27287328  0.24390795  0.73113882    -1.11800
C218        C  0.18981261  0.19018580  0.68815995     1.06300
O219        O  0.20440428  0.30024014  0.67215963    -0.78400
O220        O  0.18726924  0.26597145  0.72159511    -0.66000
Ni221      Ni  0.31378515  0.23062783  0.73866055     1.34900
C222        C  0.19485116  0.25091021  0.74641255     0.85100
O223        O  0.29254162  0.30218799  0.71485764    -0.79000
O224        O  0.32784585  0.27255357  0.73881557    -0.89300
C225        C  0.22801538  0.31362791  0.66317904     0.84700
O226        O  0.32506140  0.22543055  0.69468751    -0.67500
O227        O  0.17955293  0.21661375  0.68066266    -0.86700
C228        C  0.31723278  0.24002388  0.66950999     0.85500
C229        C  0.31771735  0.29852583  0.72923448     1.07100
H230        H  0.24254675  0.23564981  0.66283183     0.38900
O231        O  0.23594364  0.24404363  0.68304537    -1.09400
O232        O  0.21496598  0.22986122  0.74625101    -0.66100
Ni233      Ni  0.24436979  0.21471075  0.71583557     1.26300
O234        O  0.29473367  0.25851892  0.66853653    -0.66300
O235        O  0.21609603  0.18563976  0.69972007    -0.78600
C236        C  0.28056110  0.17423521  0.75110701     0.84900
O237        O  0.25478650  0.18636255  0.74797764    -0.65800
Ni238      Ni  0.19477083  0.25767770  0.67748396     1.27400
Ni239      Ni  0.26455047  0.27322686  0.69846745     1.26100
H240        H  0.26592414  0.25249143  0.75113244     0.39400
O241        O  0.81013772  0.29408719  0.75080177    -0.80500
O242        O  0.70188079  0.25143002  0.66453794    -0.65200
O243        O  0.75387207  0.26706044  0.73501911    -1.11800
C244        C  0.80731148  0.17867844  0.69741495     1.06300
O245        O  0.70094141  0.20092319  0.67119727    -0.78400
O246        O  0.73262429  0.17678550  0.72224258    -0.66000
Ni247      Ni  0.76904487  0.30783420  0.74161392     1.34900
C248        C  0.74509663  0.18415739  0.74876331     0.85100
O249        O  0.69894161  0.29164477  0.71233423    -0.79000
O250        O  0.72932993  0.32635580  0.73540258    -0.89300
C251        C  0.69079169  0.22551735  0.65848716     0.84700
O252        O  0.77938105  0.31655269  0.69793082    -0.67500
O253        O  0.78243705  0.17071368  0.68427831    -0.86700
C254        C  0.76531727  0.30982083  0.67210590     0.85500
C255        C  0.70351787  0.31799340  0.72477917     1.07100
H256        H  0.76665829  0.23574984  0.66894105     0.38900
O257        O  0.75619276  0.22916546  0.68781041    -1.09400
O258        O  0.76330707  0.20638745  0.75162767    -0.66100
Ni259      Ni  0.78223001  0.23548823  0.72377635     1.26300
O260        O  0.74522756  0.28927688  0.67073583    -0.66300
O261        O  0.81075925  0.20413439  0.71198628    -0.78600
C262        C  0.81940703  0.26953555  0.76443149     0.84900
O263        O  0.80700705  0.24404384  0.75950217    -0.65800
Ni264      Ni  0.74230941  0.18821310  0.67917114     1.27400
Ni265      Ni  0.72735945  0.26033732  0.69961064     1.26100
H266        H  0.74365056  0.26123974  0.75432151     0.39400
O267        O  0.69932246  0.79985169  0.66837814    -0.80500
O268        O  0.79888083  0.74808440  0.76239274    -0.65200
O269        O  0.75300597  0.76810869  0.68776003    -1.11800
C270        C  0.69123888  0.68678739  0.72225255     1.06300
O271        O  0.79717704  0.69787903  0.75451321    -0.78400
O272        O  0.76517977  0.67526915  0.70338938    -0.66000
Ni273      Ni  0.74058574  0.80980191  0.68018717     1.34900
C274        C  0.75750936  0.68402946  0.67536310     0.85100
O275        O  0.80729612  0.78716468  0.71506226    -0.79000
O276        O  0.78091153  0.82395418  0.68892645    -0.89300
C277        C  0.80873445  0.72132277  0.76790911     0.84700
O278        O  0.72863208  0.82047068  0.72308778    -0.67500
O279        O  0.71379031  0.67763820  0.73908472    -0.86700
C280        C  0.74083811  0.81277384  0.74970315     0.85500
C281        C  0.80515231  0.81326459  0.70164874     1.07100
H282        H  0.73307450  0.73943965  0.75195048     0.38900
O283        O  0.74466899  0.73132606  0.73436736    -1.09400
O284        O  0.74233736  0.70850692  0.66992569    -0.66100
Ni285      Ni  0.72224901  0.73922563  0.69583612     1.26300
O286        O  0.75879755  0.79003355  0.75248665    -0.66300
O287        O  0.69135544  0.71043820  0.70455302    -0.78600
C288        C  0.68953534  0.77632397  0.65349250     0.84900
O289        O  0.70078149  0.74990087  0.65803602    -0.65800
Ni290      Ni  0.75502138  0.68984901  0.74536500     1.27400
Ni291      Ni  0.77631415  0.75910435  0.72529342     1.26100
H292        H  0.76436186  0.76146129  0.66936462     0.39400
O293        O  0.46871663  0.46891208  0.75589125    -0.74100
O294        O  0.52605766  0.53354889  0.75451867    -0.74100
O295        O  0.46503898  0.53159934  0.75484622    -0.74200
O296        O  0.53016437  0.47170563  0.75513279    -0.74200
O297        O  0.52754770  0.46971122  0.70172941    -0.74100
O298        O  0.46434539  0.53088554  0.70138183    -0.74100
O299        O  0.52533811  0.53232780  0.70100439    -0.74100
O300        O  0.46616348  0.46904050  0.70239778    -0.74200
Ni301      Ni  0.49746748  0.50140106  0.75702031     1.25400
Ni302      Ni  0.49587277  0.50041026  0.69974951     1.25400
C303        C  0.45764065  0.45872925  0.72945227     0.88100
C304        C  0.53513153  0.54353279  0.72757916     0.88000
C305        C  0.45429536  0.54141267  0.72792566     0.88100
C306        C  0.53961786  0.46095149  0.72835938     0.88200
O307        O  0.53435903  0.46145782  0.15252070    -0.74100
O308        O  0.47365098  0.52344526  0.14255224    -0.74100
O309        O  0.53491788  0.52312511  0.14700217    -0.74200
O310        O  0.47320056  0.46158591  0.14850296    -0.74200
O311        O  0.47103911  0.46576774  0.20175221    -0.74100
O312        O  0.53142887  0.52810418  0.20007050    -0.74100
O313        O  0.47051130  0.52675814  0.19586647    -0.74100
O314        O  0.53227950  0.46588095  0.20578939    -0.74200
Ni315      Ni  0.50413611  0.49221513  0.14572856     1.25400
Ni316      Ni  0.50134299  0.49679745  0.20276017     1.25400
C317        C  0.54347653  0.45367858  0.18060423     0.88100
C318        C  0.46161380  0.53462059  0.16774170     0.88000
C319        C  0.54313802  0.53590578  0.17342594     0.88100
C320        C  0.46167731  0.45392510  0.17533666     0.88200
O321        O  0.75411994  0.52986046  0.43026866    -0.74100
O322        O  0.75512688  0.46570026  0.49384124    -0.74100
O323        O  0.75347176  0.52833813  0.49540513    -0.74200
O324        O  0.75573278  0.46728299  0.42883143    -0.74200
O325        O  0.80593723  0.46835222  0.42977660    -0.74100
O326        O  0.80366959  0.52875180  0.49764019    -0.74100
O327        O  0.80530490  0.46650010  0.49558809    -0.74100
O328        O  0.80431475  0.53034658  0.43146050    -0.74200
Ni329      Ni  0.75287238  0.49778673  0.46207536     1.25400
Ni330      Ni  0.80660054  0.49855210  0.46370741     1.25400
C331        C  0.77906485  0.54027871  0.41994097     0.88100
C332        C  0.78031981  0.45551102  0.50518757     0.88000
C333        C  0.77808739  0.53849762  0.50761554     0.88100
C334        C  0.78115244  0.45794234  0.41815516     0.88200
O335        O  0.53077765  0.76100134  0.48134845    -0.74100
O336        O  0.46635964  0.75741978  0.42012284    -0.74100
O337        O  0.52698867  0.75793961  0.41659295    -0.74200
O338        O  0.47045085  0.76058876  0.48407613    -0.74200
O339        O  0.46991973  0.81178995  0.48256232    -0.74100
O340        O  0.52620962  0.80906125  0.41422901    -0.74100
O341        O  0.46547698  0.80853007  0.41743179    -0.74100
O342        O  0.53032896  0.81212289  0.47925875    -0.74200
Ni343      Ni  0.49878000  0.75744504  0.45058881     1.25400
Ni344      Ni  0.49795587  0.81226577  0.44822244     1.25400
C345        C  0.54064276  0.78695018  0.49097313     0.88100
C346        C  0.45520331  0.78234426  0.40886177     0.88000
C347        C  0.53566430  0.78301016  0.40410779     0.88100
C348        C  0.46103790  0.78651327  0.49440976     0.88200
O349        O  0.24434942  0.45782224  0.44348450    -0.74100
O350        O  0.24584592  0.53516118  0.48587308    -0.74100
O351        O  0.24276896  0.47641169  0.50515714    -0.74200
O352        O  0.24752263  0.51634498  0.42467608    -0.74200
O353        O  0.19731629  0.51967987  0.42193758    -0.74100
O354        O  0.19252115  0.47786863  0.50210571    -0.74100
O355        O  0.19557093  0.53729008  0.48393044    -0.74100
O356        O  0.19416678  0.46068429  0.43967232    -0.74200
Ni357      Ni  0.24689399  0.49627908  0.46502306     1.25400
Ni358      Ni  0.19303614  0.49894108  0.46191786     1.25400
C359        C  0.21915052  0.44719520  0.43353011     0.88100
C360        C  0.22098432  0.54913217  0.49135296     0.88000
C361        C  0.21704007  0.47029857  0.51671521     0.88100
C362        C  0.22325546  0.52473427  0.41018621     0.88200
O363        O  0.46732217  0.25228799  0.48906584    -0.74100
O364        O  0.52834579  0.25270215  0.42452102    -0.74100
O365        O  0.46727156  0.25223778  0.42425137    -0.74200
O366        O  0.52841872  0.25253038  0.48940626    -0.74200
O367        O  0.52926723  0.20135281  0.48923208    -0.74100
O368        O  0.46875638  0.20105383  0.42342782    -0.74100
O369        O  0.52956678  0.20159350  0.42426086    -0.74100
O370        O  0.46835916  0.20118591  0.48918257    -0.74200
Ni371      Ni  0.49781049  0.25424877  0.45681533     1.25400
Ni372      Ni  0.49894730  0.19945626  0.45652040     1.25400
C373        C  0.45793643  0.22674566  0.49999559     0.88100
C374        C  0.53904965  0.22730498  0.41378581     0.88000
C375        C  0.45828667  0.22658381  0.41292657     0.88100
C376        C  0.53880910  0.22697380  0.50001130     0.88200
C377        C  0.63200798  0.79764791  0.59671580     0.20700
C378        C  0.61552052  0.81681686  0.57563717    -0.39200
C379        C  0.59580483  0.80179539  0.55422864     0.19700
C380        C  0.59282879  0.77023150  0.55411520     0.22300
C381        C  0.60906782  0.75122672  0.57515378    -0.39700
C382        C  0.62875740  0.76612273  0.59625832     0.21100
N383        N  0.65344916  0.80577324  0.61818871    -0.33000
C384        C  0.66391196  0.77908114  0.63100272    -0.10500
C385        C  0.64889998  0.75398567  0.61805751    -0.29300
N386        N  0.57327856  0.76129262  0.53133229    -0.45900
C387        C  0.56354135  0.78723126  0.51665273    -0.05200
C388        C  0.57697918  0.81310664  0.53025253    -0.22600
H389        H  0.61823992  0.84143568  0.57551167     0.19200
H390        H  0.60699002  0.72653253  0.57465112     0.18000
H391        H  0.65295586  0.72995623  0.62312089     0.14300
H392        H  0.57340121  0.83683510  0.52358597     0.14200
H393        H  0.66126846  0.82785111  0.62289413     0.32300
H394        H  0.56683070  0.73882424  0.52620383     0.35100
C395        C  0.75860509  0.63929025  0.60314358     0.20700
C396        C  0.74691280  0.62829201  0.57387360    -0.39200
C397        C  0.76113941  0.60209716  0.56132005     0.19700
C398        C  0.78553476  0.58802993  0.57644745     0.22300
C399        C  0.79682278  0.59861719  0.60625156    -0.39700
C400        C  0.78227178  0.62473175  0.61906296     0.21100
N401        N  0.74826147  0.66323794  0.62031958    -0.33000
C402        C  0.76493738  0.66383666  0.64783603    -0.10500
C403        C  0.78642712  0.64007041  0.64794401    -0.29300
N404        N  0.79526725  0.56379410  0.55905803    -0.45900
C405        C  0.77651460  0.56221102  0.53303652    -0.05200
C406        C  0.75487552  0.58559565  0.53380836    -0.22600
H407        H  0.72788443  0.63920728  0.56185577     0.19200
H408        H  0.81536449  0.58724010  0.61866245     0.18000
H409        H  0.80221467  0.63417420  0.66703470     0.14300
H410        H  0.73707484  0.59006044  0.51636672     0.14200
H411        H  0.72985127  0.67735213  0.61442352     0.32300
H412        H  0.81311105  0.54890337  0.56481490     0.35100
C413        C  0.58604436  0.60399325  0.71098493     0.20700
C414        C  0.60139996  0.62536267  0.69234411    -0.39200
C415        C  0.62432400  0.64152224  0.70839698     0.19700
C416        C  0.63154472  0.63634635  0.74037594     0.22300
C417        C  0.61591394  0.61542437  0.75905669    -0.39700
C418        C  0.59286041  0.59960938  0.74317156     0.21100
N419        N  0.56437299  0.58467042  0.70119555    -0.33000
C420        C  0.55733157  0.56815009  0.72746027    -0.10500
C421        C  0.57443892  0.57697770  0.75412558    -0.29300
N422        N  0.65567682  0.65257182  0.74945334    -0.45900
C423        C  0.66376420  0.66853523  0.72327622    -0.05200
C424        C  0.64459943  0.66255680  0.69718199    -0.22600
H425        H  0.59635559  0.62863943  0.66710067     0.19200
H426        H  0.62178922  0.61120870  0.78395458     0.18000
H427        H  0.57409374  0.56743417  0.77804454     0.14300
H428        H  0.64637038  0.67105376  0.67292923     0.14200
H429        H  0.55518271  0.58261741  0.67808602     0.32300
H430        H  0.66649291  0.65222226  0.77187849     0.35100
C431        C  0.78867776  0.36237045  0.61114165     0.20700
C432        C  0.80594078  0.38577873  0.59750701    -0.39200
C433        C  0.79315695  0.40049034  0.57039821     0.19700
C434        C  0.76509085  0.39277281  0.55819831     0.22300
C435        C  0.74809153  0.36907803  0.57146629    -0.39700
C436        C  0.76106773  0.35407945  0.59818636     0.21100
N437        N  0.79463764  0.34658791  0.63836151    -0.33000
C438        C  0.77078753  0.32786057  0.64262663    -0.10500
C439        C  0.74958899  0.33172158  0.61776590    -0.29300
N440        N  0.75710280  0.41126827  0.53361625    -0.45900
C441        C  0.78035982  0.43075293  0.52961688    -0.05200
C442        C  0.80339818  0.42458225  0.55205933    -0.22600
H443        H  0.82742688  0.39254239  0.60770899     0.19200
H444        H  0.72600761  0.36322581  0.56212662     0.18000
H445        H  0.72768819  0.32118835  0.61559726     0.14300
H446        H  0.82439913  0.43667155  0.55513314     0.14200
H447        H  0.81317079  0.34932220  0.65379479     0.32300
H448        H  0.73695923  0.41072181  0.52036155     0.35100
C449        C  0.63247431  0.24040326  0.60154963     0.20700
C450        C  0.61485371  0.25852979  0.58085164    -0.39200
C451        C  0.59526955  0.24249511  0.56058773     0.19700
C452        C  0.59345113  0.21082206  0.56083500     0.22300
C453        C  0.61115333  0.19264700  0.58155868    -0.39700
C454        C  0.63073542  0.20872673  0.60196090     0.21100
N455        N  0.65338700  0.25017733  0.62243771    -0.33000
C456        C  0.66516098  0.22459124  0.63620953    -0.10500
C457        C  0.65157828  0.19820969  0.62422205    -0.29300
N458        N  0.57313647  0.20119990  0.53906966    -0.45900
C459        C  0.56201735  0.22699374  0.52508722    -0.05200
C460        C  0.57524144  0.25319504  0.53779260    -0.22600
H461        H  0.61641530  0.28326750  0.58044617     0.19200
H462        H  0.60991005  0.16788704  0.58163173     0.18000
H463        H  0.65691344  0.17462458  0.63018498     0.14300
H464        H  0.57077324  0.27681835  0.53125218     0.14200
H465        H  0.65979478  0.27285970  0.62645087     0.32300
H466        H  0.56713762  0.17856557  0.53413235     0.35100
C467        C  0.63482558  0.36254997  0.71661074     0.20700
C468        C  0.60584999  0.37011611  0.70464066    -0.39200
C469        C  0.59316723  0.39779012  0.71589407     0.19700
C470        C  0.60805243  0.41637772  0.73775923     0.22300
C471        C  0.63733425  0.40915249  0.74919566    -0.39700
C472        C  0.65012829  0.38157068  0.73770653     0.21100
N473        N  0.65152192  0.33737247  0.70986381    -0.33000
C474        C  0.67790563  0.34033458  0.72647769    -0.10500
C475        C  0.67785831  0.36778478  0.74402535    -0.29300
N476        N  0.59072962  0.44087400  0.74547744    -0.45900
C477        C  0.56480202  0.43821120  0.72798816    -0.05200
C478        C  0.56563067  0.41170815  0.70907384    -0.22600
H479        H  0.59396664  0.35543532  0.68786183     0.19200
H480        H  0.64920508  0.42381296  0.76600837     0.18000
H481        H  0.69570775  0.37646438  0.75939087     0.14300
H482        H  0.54824334  0.40354528  0.69280854     0.14200
H483        H  0.64549851  0.31944684  0.69446854     0.32300
H484        H  0.59636955  0.45861181  0.76127314     0.35100
C485        C  0.37120066  0.21936370  0.60916078     0.20700
C486        C  0.39438808  0.20193642  0.59490161    -0.39200
C487        C  0.40762735  0.21482154  0.56763813     0.19700
C488        C  0.39884254  0.24322415  0.55594510     0.22300
C489        C  0.37548632  0.26050258  0.57000694    -0.39700
C490        C  0.36183712  0.24733802  0.59684991     0.21100
N491        N  0.35582772  0.21269762  0.63586859    -0.33000
C492        C  0.33614470  0.23634037  0.64050479    -0.10500
C493        C  0.33920047  0.25834247  0.61645562    -0.29300
N494        N  0.41556676  0.25092465  0.53056037    -0.45900
C495        C  0.43489791  0.22710166  0.52551950    -0.05200
C496        C  0.43053857  0.20405806  0.54819209    -0.22600
H497        H  0.40171556  0.18001634  0.60446364     0.19200
H498        H  0.36857649  0.28270720  0.56083541     0.18000
H499        H  0.32748609  0.28016162  0.61449983     0.14300
H500        H  0.44289078  0.18263896  0.55054560     0.14200
H501        H  0.35900286  0.19351105  0.65049475     0.32300
H502        H  0.41385800  0.27117077  0.51733012     0.35100
C503        C  0.20628118  0.38168612  0.62221170     0.20700
C504        C  0.18727651  0.40016160  0.60306020    -0.39200
C505        C  0.20181638  0.42211048  0.58453723     0.19700
C506        C  0.23281897  0.42549171  0.58549017     0.22300
C507        C  0.25166402  0.40735563  0.60482184    -0.39700
C508        C  0.23725337  0.38528313  0.62289373     0.21100
N509        N  0.19871085  0.35639600  0.63827677    -0.33000
C510        C  0.22517061  0.34379455  0.64851621    -0.10500
C511        C  0.24958998  0.36139667  0.63990032    -0.29300
N512        N  0.24164306  0.44474665  0.56275515    -0.45900
C513        C  0.21624667  0.45342199  0.54681299    -0.05200
C514        C  0.19078885  0.44026490  0.55996180    -0.22600
H515        H  0.16328419  0.39629385  0.60101701     0.19200
H516        H  0.27596227  0.40886817  0.60408562     0.18000
H517        H  0.27329293  0.35613790  0.64346355     0.14300
H518        H  0.16781495  0.44162409  0.55097308     0.14200
H519        H  0.17721401  0.34712915  0.64010419     0.32300
H520        H  0.26383205  0.44985993  0.55695114     0.35100
C521        C  0.35839783  0.36803476  0.72193197     0.20700
C522        C  0.36830702  0.39425206  0.70598337    -0.39200
C523        C  0.39443412  0.40767416  0.71874469     0.19700
C524        C  0.40911527  0.39627481  0.74578779     0.22300
C525        C  0.39943164  0.36982939  0.76146837    -0.39700
C526        C  0.37369685  0.35599506  0.74827917     0.21100
N527        N  0.33544629  0.34991201  0.71318862    -0.33000
C528        C  0.33659766  0.32574015  0.73353979    -0.10500
C529        C  0.36005374  0.32878298  0.75591200    -0.29300
N530        N  0.43337941  0.41315735  0.75315027    -0.45900
C531        C  0.43447806  0.43505352  0.73027199    -0.05200
C532        C  0.41065204  0.43236989  0.70830350    -0.22600
H533        H  0.35696725  0.40305662  0.68471444     0.19200
H534        H  0.41151116  0.36027829  0.78191190     0.18000
H535        H  0.36696917  0.31264855  0.77432803     0.14300
H536        H  0.40574299  0.44672234  0.68771344     0.14200
H537        H  0.32103274  0.35283584  0.69336052     0.32300
H538        H  0.44857909  0.40969349  0.77219987     0.35100
C539        C  0.91356752  0.89232780  0.71043762     0.20700
C540        C  0.89926080  0.86960427  0.72832487    -0.39200
C541        C  0.87348891  0.85682617  0.71384871     0.19700
C542        C  0.86261453  0.86650172  0.68421164     0.22300
C543        C  0.87712730  0.88875199  0.66621062    -0.39700
C544        C  0.90308049  0.90103464  0.68034008     0.21100
N545        N  0.93803127  0.90857092  0.71890581    -0.33000
C546        C  0.94321858  0.92728006  0.69372305    -0.10500
C547        C  0.92201401  0.92310693  0.66921238    -0.29300
N548        N  0.83713102  0.85201629  0.67622194    -0.45900
C549        C  0.83191829  0.83250591  0.70058113    -0.05200
C550        C  0.85413916  0.83463948  0.72452721    -0.22600
H551        H  0.90745266  0.86255348  0.75177355     0.19200
H552        H  0.86869059  0.89612158  0.64296326     0.18000
H553        H  0.92028139  0.93517151  0.64660733     0.14300
H554        H  0.85539234  0.82236139  0.74703224     0.14200
H555        H  0.95043245  0.90700920  0.74034140     0.32300
H556        H  0.82403616  0.85519791  0.65544312     0.35100
C557        C  0.91356081  0.09246853  0.70672964     0.20700
C558        C  0.90053129  0.11723321  0.72353123    -0.39200
C559        C  0.87437892  0.13036068  0.70950005     0.19700
C560        C  0.86180143  0.11917089  0.68129835     0.22300
C561        C  0.87501429  0.09468330  0.66433885    -0.39700
C562        C  0.90149949  0.08202821  0.67796777     0.21100
N563        N  0.93835462  0.07598204  0.71499218    -0.33000
C564        C  0.94244371  0.05522472  0.69104470    -0.10500
C565        C  0.91992889  0.05842345  0.66747184    -0.29300
N566        N  0.83653135  0.13496108  0.67337286    -0.45900
C567        C  0.83317030  0.15685530  0.69628538    -0.05200
C568        C  0.85642191  0.15471826  0.71924315    -0.22600
H569        H  0.91010420  0.12572565  0.74583080     0.19200
H570        H  0.86541498  0.08615822  0.64206711     0.18000
H571        H  0.91711169  0.04488802  0.64585351     0.14300
H572        H  0.85938300  0.16866863  0.74055523     0.14200
H573        H  0.95181114  0.07881031  0.73553536     0.32300
H574        H  0.82247132  0.13117157  0.65347082     0.35100
C575        C  0.09457867  0.09589318  0.67317437     0.20700
C576        C  0.10182784  0.12497220  0.66152807    -0.39200
C577        C  0.12966328  0.13653207  0.67195950     0.19700
C578        C  0.14898977  0.12025588  0.69214716     0.22300
C579        C  0.14151886  0.09137683  0.70421243    -0.39700
C580        C  0.11349303  0.07998228  0.69412342     0.21100
N581        N  0.06927425  0.08009540  0.66723682    -0.33000
C582        C  0.07190391  0.05426499  0.68502146    -0.10500
C583        C  0.09905048  0.05338639  0.70222820    -0.29300
N584        N  0.17363686  0.13671114  0.69928883    -0.45900
C585        C  0.16969335  0.16385776  0.68397429    -0.05200
C586        C  0.14258745  0.16453654  0.66660027    -0.22600
H587        H  0.08671143  0.13784876  0.64589523     0.19200
H588        H  0.15618926  0.07895395  0.72069919     0.18000
H589        H  0.10707851  0.03566718  0.71843376     0.14300
H590        H  0.13314483  0.18339198  0.65280550     0.14200
H591        H  0.05101174  0.08678434  0.65268924     0.32300
H592        H  0.19133149  0.13044366  0.71481076     0.35100
C593        C  0.21299735  0.66671886  0.56186584     0.20700
C594        C  0.19392343  0.64520780  0.54741834    -0.39200
C595        C  0.20826078  0.62216964  0.52976640     0.19700
C596        C  0.23922762  0.62094728  0.52630498     0.22300
C597        C  0.25827649  0.64271108  0.54025857    -0.39700
C598        C  0.24400710  0.66541874  0.55844216     0.21100
N599        N  0.20548962  0.68659932  0.58501835    -0.33000
C600        C  0.23188799  0.69708830  0.59712106    -0.10500
C601        C  0.25636295  0.68518501  0.58054343    -0.29300
N602        N  0.24759578  0.59494119  0.51164382    -0.45900
C603        C  0.22179047  0.57951263  0.50595815    -0.05200
C604        C  0.19672986  0.59582672  0.51656736    -0.22600
H605        H  0.16995589  0.64499119  0.55177273     0.19200
H606        H  0.28256094  0.64058783  0.53930848     0.18000
H607        H  0.28001229  0.68747474  0.58670163     0.14300
H608        H  0.17346127  0.58868094  0.51611091     0.14200
H609        H  0.18409854  0.68978462  0.59466577     0.32300
H610        H  0.26957190  0.58762484  0.50691073     0.35100
C611        C  0.37843517  0.79256928  0.60461292     0.20700
C612        C  0.40289833  0.80874753  0.59253080    -0.39200
C613        C  0.41432660  0.79752965  0.56352405     0.19700
C614        C  0.40267128  0.77180169  0.54842048     0.22300
C615        C  0.37811429  0.75604719  0.56014747    -0.39700
C616        C  0.36634729  0.76763571  0.58849000     0.21100
N617        N  0.36378295  0.79776258  0.63210575    -0.33000
C618        C  0.34210146  0.77618817  0.63268391    -0.10500
C619        C  0.34291165  0.75721608  0.60591008    -0.29300
N620        N  0.41797542  0.76488255  0.52203904    -0.45900
C621        C  0.43914535  0.78666758  0.51985124    -0.05200
C622        C  0.43768854  0.80761692  0.54509962    -0.22600
H623        H  0.41234746  0.82841195  0.60477916     0.19200
H624        H  0.36891227  0.73612315  0.54813181     0.18000
H625        H  0.32888151  0.73764899  0.60055669     0.14300
H626        H  0.45217256  0.82697767  0.54970379     0.14200
H627        H  0.36829695  0.81460131  0.64933271     0.32300
H628        H  0.41413895  0.74658945  0.50631118     0.35100
C629        C  0.40219060  0.60421640  0.74026570     0.20700
C630        C  0.38908949  0.62945798  0.75624964    -0.39200
C631        C  0.36807800  0.64705082  0.73825570     0.19700
C632        C  0.36043109  0.63982642  0.70686180     0.22300
C633        C  0.37387615  0.61492518  0.69074313    -0.39700
C634        C  0.39506909  0.59755149  0.70860501     0.21100
N635        N  0.42342853  0.58451391  0.75167014    -0.33000
C636        C  0.43024086  0.56541058  0.72694347    -0.10500
C637        C  0.41293205  0.57290641  0.69972204    -0.29300
N638        N  0.34031580  0.66031430  0.69483226    -0.45900
C639        C  0.33531353  0.68114487  0.71849207    -0.05200
C640        C  0.35237816  0.67362746  0.74593800    -0.22600
H641        H  0.39516563  0.63527606  0.78074085     0.19200
H642        H  0.36854658  0.60971353  0.66591562     0.18000
H643        H  0.41374006  0.56211261  0.67633564     0.14300
H644        H  0.35363134  0.68630053  0.76826882     0.14200
H645        H  0.43340911  0.58470697  0.77451705     0.32300
H646        H  0.33144504  0.66080490  0.67148709     0.35100
C647        C  0.09747292  0.88251614  0.67708306     0.20700
C648        C  0.10729912  0.85467075  0.66338869    -0.39200
C649        C  0.13271381  0.84071037  0.67807038     0.19700
C650        C  0.14737851  0.85354656  0.70428284     0.22300
C651        C  0.13725432  0.88112995  0.71828204    -0.39700
C652        C  0.11171032  0.89496798  0.70377056     0.21100
N653        N  0.07372324  0.90013153  0.66783713    -0.33000
C654        C  0.07250115  0.92374456  0.68910786    -0.10500
C655        C  0.09577884  0.92118544  0.71192404    -0.29300
N656        N  0.17047201  0.83540312  0.71428215    -0.45900
C657        C  0.17039087  0.81055874  0.69455425    -0.05200
C658        C  0.14712208  0.81317184  0.67164151    -0.22600
H659        H  0.09581994  0.84444838  0.64298553     0.19200
H660        H  0.14822843  0.89091272  0.73922705     0.18000
H661        H  0.10036877  0.93646466  0.73186580     0.14300
H662        H  0.14095079  0.79662375  0.65336015     0.14200
H663        H  0.05880697  0.89595333  0.64874274     0.32300
H664        H  0.18461690  0.83908567  0.73413969     0.35100
C665        C  0.14374912  0.72132814  0.82385282     0.20700
C666        C  0.13354788  0.73381845  0.85257983    -0.39200
C667        C  0.10711745  0.72127264  0.86402624     0.19700
C668        C  0.09219364  0.69764639  0.84844868     0.22300
C669        C  0.10211341  0.68553215  0.81922155    -0.39700
C670        C  0.12844071  0.69848892  0.80742651     0.21100
N671        N  0.16759354  0.73042283  0.80748467    -0.33000
C672        C  0.16719165  0.71383574  0.78004757    -0.10500
C673        C  0.14321569  0.69348622  0.77905591    -0.29300
N674        N  0.06799649  0.68926413  0.86502798    -0.45900
C675        C  0.06755382  0.70820682  0.89078117    -0.05200
C676        C  0.09134232  0.72856204  0.89092989    -0.22600
H677        H  0.14515955  0.75221527  0.86490059     0.19200
H678        H  0.09010491  0.66765423  0.80651092     0.18000
H679        H  0.13681624  0.67812775  0.75974645     0.14300
H680        H  0.09668744  0.74586177  0.90874436     0.14200
H681        H  0.18227415  0.74807030  0.81383410     0.32300
H682        H  0.05266925  0.67207355  0.85914044     0.35100
C683        C  0.86892006  0.73028637  0.82456290     0.20700
C684        C  0.88765785  0.74646698  0.84578031    -0.39200
C685        C  0.90706426  0.72853484  0.86487055     0.19700
C686        C  0.90791714  0.69685604  0.86296979     0.22300
C687        C  0.88915243  0.68060716  0.84158662    -0.39700
C688        C  0.86955536  0.69860578  0.82249359     0.21100
N689        N  0.84779165  0.74213271  0.80479841    -0.33000
C690        C  0.83462469  0.71791671  0.79004905    -0.10500
C691        C  0.84768047  0.69030052  0.80029209    -0.29300
N692        N  0.92843557  0.68528803  0.88385893    -0.45900
C693        C  0.94061778  0.70987166  0.89904308    -0.05200
C694        C  0.92783287  0.73717976  0.88781945    -0.22600
H695        H  0.88695297  0.77122404  0.84752514     0.19200
H696        H  0.88954760  0.65583375  0.84017365     0.18000
H697        H  0.84144482  0.66732625  0.79316992     0.14300
H698        H  0.93325003  0.76029578  0.89523852     0.14200
H699        H  0.84218075  0.76531318  0.80209640     0.32300
H700        H  0.93400912  0.66220332  0.88733274     0.35100
C701        C  0.72227990  0.86983997  0.80888070     0.20700
C702        C  0.70776294  0.89583461  0.82179474    -0.39200
C703        C  0.72062924  0.90787762  0.85017047     0.19700
C704        C  0.74643553  0.89547309  0.86419937     0.22300
C705        C  0.76070936  0.86927334  0.85154626    -0.39700
C706        C  0.74744048  0.85683751  0.82362225     0.21100
N707        N  0.71550756  0.85500313  0.78125957    -0.33000
C708        C  0.73631388  0.83211007  0.77861154    -0.10500
C709        C  0.75638939  0.83247069  0.80478575    -0.29300
N710        N  0.75476996  0.91177634  0.89033511    -0.45900
C711        C  0.73373300  0.93435654  0.89344221    -0.05200
C712        C  0.71206701  0.93260866  0.86885747    -0.22600
H713        H  0.68803575  0.90609587  0.81045482     0.19200
H714        H  0.78086085  0.85944480  0.86245727     0.18000
H715        H  0.77612350  0.81803380  0.80845677     0.14300
H716        H  0.69286835  0.94770789  0.86495034     0.14200
H717        H  0.69850191  0.86077582  0.76470441     0.32300
H718        H  0.77335487  0.90755238  0.90540809     0.35100
C719        C  0.74866954  0.09899941  0.86078576     0.20700
C720        C  0.76513140  0.12284636  0.84719854    -0.39200
C721        C  0.75170860  0.13737138  0.82051270     0.19700
C722        C  0.72433176  0.12831899  0.80758220     0.22300
C723        C  0.70764840  0.10454888  0.82140598    -0.39700
C724        C  0.72074188  0.09052049  0.84878172     0.21100
N725        N  0.75659077  0.08190099  0.88642172    -0.33000
C726        C  0.73334880  0.06269707  0.89147271    -0.10500
C727        C  0.71049419  0.06738490  0.86842485    -0.29300
N728        N  0.71750843  0.14466758  0.78092628    -0.45900
C729        C  0.74048642  0.16464556  0.77729514    -0.05200
C730        C  0.76208432  0.16078176  0.80168959    -0.22600
H731        H  0.78686430  0.12963842  0.85675250     0.19200
H732        H  0.68608945  0.09751141  0.81160617     0.18000
H733        H  0.68941297  0.05529995  0.86617045     0.14300
H734        H  0.78343016  0.17236162  0.80421783     0.14200
H735        H  0.77646103  0.08353752  0.90003158     0.32300
H736        H  0.69882922  0.14187082  0.76570709     0.35100
C737        C  0.91939845  0.25667494  0.85990123     0.20700
C738        C  0.89791402  0.23885625  0.84380468    -0.39200
C739        C  0.87959208  0.25455710  0.82158145     0.19700
C740        C  0.88233721  0.28562679  0.81574053     0.22300
C741        C  0.90385544  0.30346968  0.83187600    -0.39700
C742        C  0.92219500  0.28776172  0.85418371     0.21100
N743        N  0.93907351  0.24732844  0.88268407    -0.33000
C744        C  0.95434570  0.27271644  0.89166855    -0.10500
C745        C  0.94453778  0.29835170  0.87440214    -0.29300
N746        N  0.86157949  0.29516284  0.79406179    -0.45900
C747        C  0.84561806  0.26988013  0.78620026    -0.05200
C748        C  0.85624232  0.24417015  0.80279422    -0.22600
H749        H  0.89542229  0.21463512  0.84848173     0.19200
H750        H  0.90590714  0.32781950  0.82769822     0.18000
H751        H  0.95247837  0.32163619  0.87661265     0.14300
H752        H  0.84758960  0.22107922  0.80173306     0.14200
H753        H  0.94162265  0.22519523  0.89188663     0.32300
H754        H  0.85815897  0.31746003  0.78561168     0.35100
C755        C  0.11132120  0.28155986  0.85301061     0.20700
C756        C  0.12460843  0.29572563  0.82656937    -0.39200
C757        C  0.14634473  0.27811094  0.81033508     0.19700
C758        C  0.15454076  0.24882028  0.81999281     0.22300
C759        C  0.14103098  0.23457107  0.84616527    -0.39700
C760        C  0.11904527  0.25198109  0.86208195     0.21100
N761        N  0.08927982  0.29287314  0.87168324    -0.33000
C762        C  0.08266208  0.27010558  0.89243598    -0.10500
C763        C  0.10076873  0.24429335  0.88713165    -0.29300
N764        N  0.17442096  0.23624046  0.79961517    -0.45900
C765        C  0.17850695  0.25736047  0.77635030    -0.05200
C766        C  0.16147807  0.28386248  0.78234375    -0.22600
H767        H  0.11790980  0.31843357  0.81866135     0.19200
H768        H  0.14663022  0.21128690  0.85308897     0.18000
H769        H  0.10038925  0.22266951  0.89975029     0.14300
H770        H  0.15927348  0.30397923  0.76733993     0.14200
H771        H  0.07883846  0.31438410  0.86987227     0.32300
H772        H  0.18315880  0.21391826  0.80035501     0.35100
C773        C  0.29574157  0.06413903  0.83274471     0.20700
C774        C  0.31361066  0.08329847  0.81408163    -0.39200
C775        C  0.29784551  0.10414397  0.79435636     0.19700
C776        C  0.26666736  0.10536620  0.79315169     0.22300
C777        C  0.24884806  0.08608267  0.81150836    -0.39700
C778        C  0.26457225  0.06558275  0.83144627     0.21100
N779        N  0.30516762  0.04556959  0.85655068    -0.33000
C780        C  0.27983602  0.03555658  0.87069350    -0.10500
C781        C  0.25406841  0.04717131  0.85539870    -0.29300
N782        N  0.25701856  0.12942133  0.77592097    -0.45900
C783        C  0.28208407  0.14405336  0.76643527    -0.05200
C784        C  0.30811277  0.12870805  0.77695628    -0.22600
H785        H  0.33792234  0.08336198  0.81636497     0.19200
H786        H  0.22454431  0.08829629  0.81181109     0.18000
H787        H  0.23090144  0.04456206  0.86253326     0.14300
H788        H  0.33120182  0.13590988  0.77448203     0.14200
H789        H  0.32741113  0.04175268  0.86417106     0.32300
H790        H  0.23464897  0.13659290  0.77265028     0.35100
C791        C  0.29119766  0.82749599  0.85267007     0.20700
C792        C  0.30940510  0.84825255  0.86937647    -0.39200
C793        C  0.29417616  0.86926448  0.88877115     0.19700
C794        C  0.26313112  0.86942033  0.89169445     0.22300
C795        C  0.24490104  0.84835923  0.87533198    -0.39700
C796        C  0.26012299  0.82760227  0.85549678     0.21100
N797        N  0.29979069  0.80919624  0.82856364    -0.33000
C798        C  0.27400884  0.79829799  0.81541527    -0.10500
C799        C  0.24882903  0.80864086  0.83196889    -0.29300
N800        N  0.25389348  0.89427459  0.90797097    -0.45900
C801        C  0.27925329  0.91005367  0.91498609    -0.05200
C802        C  0.30482482  0.89497126  0.90392362    -0.22600
H803        H  0.33342460  0.84949629  0.86559588     0.19200
H804        H  0.22055603  0.84967448  0.87593773     0.18000
H805        H  0.22537372  0.80544719  0.82544883     0.14300
H806        H  0.32782522  0.90293368  0.90473232     0.14200
H807        H  0.32151632  0.80689232  0.81951935     0.32300
H808        H  0.23166410  0.90102883  0.91225486     0.35100
C809        C  0.36537070  0.77963995  0.30185598     0.20700
C810        C  0.38756385  0.79893075  0.31470318    -0.39200
C811        C  0.40110778  0.78909673  0.34348625     0.19700
C812        C  0.39341294  0.76187491  0.35807130     0.22300
C813        C  0.37085884  0.74282443  0.34552156    -0.39700
C814        C  0.35704086  0.75287815  0.31694347     0.21100
N815        N  0.35080591  0.78272398  0.27359348    -0.33000
C816        C  0.33292056  0.75788434  0.27077876    -0.10500
C817        C  0.33591523  0.73888569  0.29749607    -0.29300
N818        N  0.41133129  0.75641640  0.38365938    -0.45900
C819        C  0.43029243  0.78049356  0.38554606    -0.05200
C820        C  0.42446478  0.80152764  0.36113069    -0.22600
H821        H  0.39440636  0.81960140  0.30267630     0.19200
H822        H  0.36515331  0.72131833  0.35664248     0.18000
H823        H  0.32539760  0.71695187  0.30125783     0.14300
H824        H  0.43668838  0.82222520  0.35603236     0.14200
H825        H  0.35354855  0.80015318  0.25681278     0.32300
H826        H  0.41112867  0.73719390  0.39852178     0.35100
C827        C  0.21269177  0.56926431  0.33989678     0.20700
C828        C  0.19651087  0.58805233  0.31851310    -0.39200
C829        C  0.21393838  0.60713853  0.29957057     0.19700
C830        C  0.24511197  0.60745477  0.30167909     0.22300
C831        C  0.26131276  0.58840251  0.32279467    -0.39700
C832        C  0.24388010  0.56937957  0.34181033     0.21100
N833        N  0.20130684  0.55189407  0.36310582    -0.33000
C834        C  0.22544982  0.54119143  0.37997366    -0.10500
C835        C  0.25238207  0.55116898  0.36717682    -0.29300
N836        N  0.25617722  0.63001676  0.28375865    -0.45900
C837        C  0.23181516  0.64417553  0.27040147    -0.05200
C838        C  0.20512102  0.63036484  0.27933567    -0.22600
H839        H  0.17213606  0.58896535  0.31792451     0.19200
H840        H  0.28556288  0.58952634  0.32547597     0.18000
H841        H  0.27497117  0.54747743  0.37663075     0.14300
H842        H  0.18230096  0.63767225  0.27356589     0.14200
H843        H  0.17857345  0.54903852  0.36831265     0.32300
H844        H  0.27870489  0.63640886  0.28211927     0.35100
C845        C  0.39764145  0.58196950  0.17916770     0.20700
C846        C  0.37385034  0.59422583  0.19667141    -0.39200
C847        C  0.36112140  0.62111856  0.18440690     0.19700
C848        C  0.37141606  0.63507775  0.15693560     0.22300
C849        C  0.39493574  0.62238485  0.13892180    -0.39700
C850        C  0.40760691  0.59514009  0.15110626     0.21100
N851        N  0.41519015  0.55826308  0.18773505    -0.33000
C852        C  0.43645183  0.55613012  0.16501988    -0.10500
C853        C  0.43231317  0.57831119  0.14133472    -0.29300
N854        N  0.35700185  0.66191869  0.15205038    -0.45900
C855        C  0.33731397  0.66448590  0.17643924    -0.05200
C856        C  0.33907842  0.63947069  0.19690646    -0.22600
H857        H  0.36653463  0.58416956  0.21889316     0.19200
H858        H  0.40345657  0.63346481  0.11778135     0.18000
H859        H  0.44658950  0.58277435  0.12111247     0.14300
H860        H  0.32679660  0.63590474  0.21879112     0.14200
H861        H  0.41345586  0.54497651  0.20841132     0.32300
H862        H  0.36062631  0.67765004  0.13372197     0.35100
C863        C  0.26260552  0.92070932  0.07635679     0.20700
C864        C  0.24409239  0.90084555  0.09312509    -0.39200
C865        C  0.25904593  0.87994874  0.11322216     0.19700
C866        C  0.29011952  0.87899785  0.11662831     0.22300
C867        C  0.30870968  0.89897233  0.09988407    -0.39700
C868        C  0.29371680  0.91977991  0.07948952     0.21100
N869        N  0.25395196  0.93972537  0.05277335    -0.33000
C870        C  0.27966843  0.95051795  0.04028452    -0.10500
C871        C  0.30499086  0.93909491  0.05666212    -0.29300
N872        N  0.29882708  0.85523520  0.13503219    -0.45900
C873        C  0.27307451  0.84096138  0.14302520    -0.05200
C874        C  0.24781644  0.85581190  0.13009064    -0.22600
H875        H  0.21990681  0.90059674  0.08947130     0.19200
H876        H  0.33303516  0.89730642  0.10128889     0.18000
H877        H  0.32840212  0.94227736  0.05077125     0.14300
H878        H  0.22451926  0.84895124  0.13149952     0.14200
H879        H  0.23200550  0.94314178  0.04400410     0.32300
H880        H  0.32090729  0.84831853  0.14051094     0.35100
C881        C  0.15483502  0.72825144  0.09271262     0.20700
C882        C  0.14226009  0.74059930  0.06454433    -0.39200
C883        C  0.12048376  0.72263901  0.04908870     0.19700
C884        C  0.11229515  0.69410366  0.06026804     0.22300
C885        C  0.12493045  0.68171210  0.08853107    -0.39700
C886        C  0.14621862  0.70008248  0.10449360     0.21100
N887        N  0.17330503  0.74246998  0.11357564    -0.33000
C888        C  0.17594078  0.72362268  0.13920362    -0.10500
C889        C  0.15961351  0.69680268  0.13435894    -0.29300
N890        N  0.08894047  0.68309385  0.04296131    -0.45900
C891        C  0.08184762  0.70521954  0.02130351    -0.05200
C892        C  0.10121777  0.72999843  0.02416303    -0.22600
H893        H  0.14768543  0.76336315  0.05634275     0.19200
H894        H  0.11739626  0.66025768  0.09839487     0.18000
H895        H  0.15669692  0.67820547  0.15109718     0.14300
H896        H  0.10013074  0.75135543  0.01103811     0.14200
H897        H  0.18201567  0.76449857  0.11140227     0.32300
H898        H  0.07716923  0.66294360  0.04715697     0.35100
C899        C  0.78403658  0.62429737  0.30597267     0.20700
C900        C  0.79987765  0.59924158  0.31966541    -0.39200
C901        C  0.78908534  0.58845084  0.34914935     0.19700
C902        C  0.76397868  0.60118863  0.36349455     0.22300
C903        C  0.74839221  0.62644931  0.35001690    -0.39700
C904        C  0.75955053  0.63762493  0.32091452     0.21100
N905        N  0.78899556  0.63800930  0.27756361    -0.33000
C906        C  0.76772512  0.66052620  0.27445426    -0.10500
C907        C  0.74909068  0.66101542  0.30122001    -0.29300
N908        N  0.75731874  0.58586312  0.39049093    -0.45900
C909        C  0.77866062  0.56351271  0.39388386    -0.05200
C910        C  0.79896087  0.56452214  0.36857343    -0.22600
H911        H  0.81904451  0.58872286  0.30806693     0.19200
H912        H  0.72874813  0.63646235  0.36118744     0.18000
H913        H  0.72958003  0.67559291  0.30503626     0.14300
H914        H  0.81782526  0.54917399  0.36441543     0.14200
H915        H  0.80540784  0.63193889  0.26095274     0.32300
H916        H  0.73931416  0.59030943  0.40571256     0.35100
C917        C  0.62578896  0.78944600  0.30068806     0.20700
C918        C  0.60787345  0.80915348  0.31916449    -0.39200
C919        C  0.58809041  0.79471640  0.33998444     0.19700
C920        C  0.58622379  0.76311316  0.34204426     0.22300
C921        C  0.60390062  0.74345350  0.32342544    -0.39700
C922        C  0.62377116  0.75785349  0.30281698     0.21100
N923        N  0.64844221  0.79729297  0.28153893    -0.33000
C924        C  0.66103497  0.77045504  0.27188714    -0.10500
C925        C  0.64602919  0.74539749  0.28428510    -0.29300
N926        N  0.56708032  0.75502694  0.36493115    -0.45900
C927        C  0.55673695  0.78165536  0.37758138    -0.05200
C928        C  0.56914757  0.80695138  0.36259005    -0.22600
H929        H  0.61002314  0.83382256  0.31831946     0.19200
H930        H  0.60311851  0.71877515  0.32577067     0.18000
H931        H  0.65185338  0.72135859  0.28172744     0.14300
H932        H  0.56541060  0.83094860  0.36806616     0.14200
H933        H  0.65595942  0.81941678  0.27689257     0.32300
H934        H  0.56184122  0.73277019  0.37193153     0.35100
C935        C  0.63460691  0.63484888  0.18979446     0.20700
C936        C  0.60789087  0.62456856  0.20359000    -0.39200
C937        C  0.59419786  0.59937813  0.18846550     0.19700
C938        C  0.60588332  0.58573619  0.16127952     0.22300
C939        C  0.63290926  0.59574070  0.14773763    -0.39700
C940        C  0.64689860  0.62066871  0.16321423     0.21100
N941        N  0.65240577  0.65760262  0.20045663    -0.33000
C942        C  0.67658606  0.65766364  0.18096716    -0.10500
C943        C  0.67394591  0.63491369  0.15740589    -0.29300
N944        N  0.58874445  0.56193470  0.15178651    -0.45900
C945        C  0.56634054  0.56003930  0.17347997    -0.05200
C946        C  0.56904674  0.58303275  0.19668551    -0.22600
H947        H  0.59873359  0.63505706  0.22493977     0.19200
H948        H  0.64262733  0.58457556  0.12705146     0.18000
H949        H  0.68995219  0.62916707  0.13895812     0.14300
H950        H  0.55470418  0.58701755  0.21706583     0.14200
H951        H  0.64890730  0.67145826  0.22057404     0.32300
H952        H  0.59261065  0.54724827  0.13240891     0.35100
C953        C  0.88638862  0.69848436  0.11501293     0.20700
C954        C  0.90429012  0.67884835  0.09637413    -0.39200
C955        C  0.92400108  0.69335418  0.07548972     0.19700
C956        C  0.92587738  0.72496659  0.07369097     0.22300
C957        C  0.90820653  0.74454903  0.09241518    -0.39700
C958        C  0.88832338  0.73008353  0.11295355     0.21100
N959        N  0.86361511  0.69055558  0.13399243    -0.33000
C960        C  0.85079372  0.71731896  0.14353788    -0.10500
C961        C  0.86582693  0.74244834  0.13127237    -0.29300
N962        N  0.94458355  0.73320051  0.05049369    -0.45900
C963        C  0.95455971  0.70672226  0.03718538    -0.05200
C964        C  0.94245365  0.68127656  0.05223316    -0.22600
H965        H  0.90202181  0.65418728  0.09699607     0.19200
H966        H  0.90886803  0.76923168  0.09003465     0.18000
H967        H  0.85985014  0.76646441  0.13372191     0.14300
H968        H  0.94582815  0.65734532  0.04621484     0.14200
H969        H  0.85608568  0.66840902  0.13847908     0.32300
H970        H  0.94948940  0.75553169  0.04345767     0.35100
C971        C  0.75158497  0.89787765  0.06194087     0.20700
C972        C  0.76915214  0.87433961  0.07596667    -0.39200
C973        C  0.75557597  0.85790596  0.10069848     0.19700
C974        C  0.72692393  0.86486128  0.11129051     0.22300
C975        C  0.70915961  0.88821880  0.09696126    -0.39700
C976        C  0.72251976  0.90423900  0.07165581     0.21100
N977        N  0.75946811  0.91673900  0.03808013    -0.33000
C978        C  0.73513985  0.93502106  0.03195326    -0.10500
C979        C  0.71157046  0.92785886  0.05243853    -0.29300
N980        N  0.72008517  0.84726096  0.13666641    -0.45900
C981        C  0.74435388  0.82856907  0.14190655    -0.05200
C982        C  0.76682826  0.83447606  0.11975317    -0.22600
H983        H  0.79184704  0.86928379  0.06828209     0.19200
H984        H  0.68667497  0.89365206  0.10504802     0.18000
H985        H  0.68952145  0.93862554  0.05330789     0.14300
H986        H  0.78915029  0.82429390  0.11898519     0.14200
H987        H  0.78005562  0.91685281  0.02629756     0.32300
H988        H  0.70048328  0.84847676  0.15016118     0.35100
C989        C  0.63546896  0.24297469  0.31640274     0.20700
C990        C  0.61656739  0.26065230  0.33606457    -0.39200
C991        C  0.59657750  0.24419742  0.35507201     0.19700
C992        C  0.59552335  0.21251620  0.35461359     0.22300
C993        C  0.61443164  0.19480658  0.33486608    -0.39700
C994        C  0.63440879  0.21129157  0.31575808     0.21100
N995        N  0.65701748  0.25317434  0.29695748    -0.33000
C996        C  0.66991526  0.22787946  0.28373996    -0.10500
C997        C  0.65630249  0.20126766  0.29479684    -0.29300
N998        N  0.57490250  0.20240874  0.37533700    -0.45900
C999        C  0.56268140  0.22783234  0.38907934    -0.05200
C1000       C  0.57565913  0.25432727  0.37696494    -0.22600
H1001       H  0.61756658  0.28542126  0.33674955     0.19200
H1002       H  0.61384183  0.17001609  0.33463533     0.18000
H1003       H  0.66222675  0.17777870  0.28903722     0.14300
H1004       H  0.57063026  0.27784125  0.38349862     0.14200
H1005       H  0.66302679  0.27598405  0.29342638     0.32300
H1006       H  0.56955871  0.17960911  0.37994624     0.35100
C1007       C  0.76799522  0.39682274  0.36221047     0.20700
C1008       C  0.75269939  0.37178118  0.34880085    -0.39200
C1009       C  0.76552806  0.35872482  0.32134478     0.19700
C1010       C  0.79131559  0.37006721  0.30770696     0.22300
C1011       C  0.80693526  0.39493640  0.32145405    -0.39700
C1012       C  0.79440314  0.40765653  0.34943472     0.21100
N1013       N  0.75994797  0.41347180  0.38795500    -0.33000
C1014       C  0.78164494  0.43476949  0.39220213    -0.10500
C1015       C  0.80362466  0.43184109  0.36868129    -0.29300
N1016       N  0.79742396  0.35501204  0.28016647    -0.45900
C1017       C  0.77551019  0.33372061  0.27656107    -0.05200
C1018       C  0.75544824  0.33525879  0.30198605    -0.22600
H1019       H  0.73204124  0.36331769  0.35878180     0.19200
H1020       H  0.82711747  0.40395224  0.31094675     0.18000
H1021       H  0.82332102  0.44587734  0.36572295     0.14300
H1022       H  0.73508374  0.32219897  0.30485412     0.14200
H1023       H  0.74096412  0.41035556  0.40201617     0.32300
H1024       H  0.81476587  0.35961202  0.26430626     0.35100
C1025       C  0.60567872  0.40289255  0.17011613     0.20700
C1026       C  0.62956577  0.38937843  0.15348847    -0.39200
C1027       C  0.64827270  0.36981366  0.17151691     0.19700
C1028       C  0.64317575  0.36369362  0.20353606     0.22300
C1029       C  0.61952017  0.37763258  0.22036745    -0.39700
C1030       C  0.60106579  0.39766476  0.20240258     0.21100
N1031       N  0.58524204  0.42282644  0.15839141    -0.33000
C1032       C  0.56774429  0.43082452  0.18341237    -0.10500
C1033       C  0.57682679  0.41562746  0.21137597    -0.29300
N1034       N  0.66388187  0.34381286  0.21501815    -0.45900
C1035       C  0.68250708  0.33780807  0.19028498    -0.05200
C1036       C  0.67368201  0.35368363  0.16278704    -0.22600
H1037       H  0.63345724  0.39401113  0.12841822     0.19200
H1038       H  0.61590559  0.37336219  0.24556544     0.18000
H1039       H  0.56723263  0.41768996  0.23500234     0.14300
H1040       H  0.68422218  0.35319831  0.13955843     0.14200
H1041       H  0.58381024  0.43114781  0.13494923     0.32300
H1042       H  0.66561862  0.33525606  0.23835383     0.35100
C1043       C  0.72872568  0.13255790  0.11434232     0.20700
C1044       C  0.71107540  0.10913381  0.10047214    -0.39200
C1045       C  0.72260331  0.09523968  0.07254756     0.19700
C1046       C  0.74988957  0.10372156  0.05990405     0.22300
C1047       C  0.76724626  0.12734351  0.07346295    -0.39700
C1048       C  0.75550417  0.14154504  0.10093240     0.21100
N1049       N  0.72370547  0.14820511  0.14179117    -0.33000
C1050       C  0.74728225  0.16756998  0.14567717    -0.10500
C1051       C  0.76742191  0.16414619  0.12045275    -0.29300
N1052       N  0.75685149  0.08604342  0.03449646    -0.45900
C1053       C  0.73373328  0.06628917  0.03036263    -0.05200
C1054       C  0.71175069  0.07146413  0.05357010    -0.22600
H1055       H  0.69017487  0.10191406  0.11094202     0.19200
H1056       H  0.78865433  0.13385057  0.06363193     0.18000
H1057       H  0.78878083  0.17548991  0.11771007     0.14300
H1058       H  0.69116220  0.05886696  0.05677369     0.14200
H1059       H  0.70577775  0.14530313  0.15737376     0.32300
H1060       H  0.77631732  0.08722851  0.02083053     0.35100
C1061       C  0.88672838  0.29000951  0.10644444     0.20700
C1062       C  0.90429398  0.30827241  0.08634894    -0.39200
C1063       C  0.92386331  0.29231850  0.06574091     0.19700
C1064       C  0.92574110  0.26063803  0.06527547     0.22300
C1065       C  0.90827721  0.24244438  0.08533673    -0.39700
C1066       C  0.88876063  0.25834239  0.10584233     0.21100
N1067       N  0.86529133  0.29938441  0.12696410    -0.33000
C1068       C  0.85346951  0.27344832  0.13929498    -0.10500
C1069       C  0.86775632  0.24745630  0.12680658    -0.29300
N1070       N  0.94546118  0.25090417  0.04320914    -0.45900
C1071       C  0.95635376  0.27649022  0.02935442    -0.05200
C1072       C  0.94342498  0.30282950  0.04282728    -0.22600
H1073       H  0.90249530  0.33303057  0.08636770     0.19200
H1074       H  0.90941615  0.21765869  0.08463117     0.18000
H1075       H  0.86257537  0.22370996  0.13143722     0.14300
H1076       H  0.94763911  0.32643122  0.03657645     0.14200
H1077       H  0.85832393  0.32194147  0.13132694     0.32300
H1078       H  0.95107436  0.22817064  0.03780617     0.35100
C1079       C  0.21197745  0.35865496  0.32688351     0.20700
C1080       C  0.19255620  0.37553694  0.34651855    -0.39200
C1081       C  0.20637292  0.39033699  0.37260222     0.19700
C1082       C  0.23711230  0.38837388  0.37859722     0.22300
C1083       C  0.25649230  0.37163278  0.35892882    -0.39700
C1084       C  0.24272340  0.35697141  0.33287553     0.21100
N1085       N  0.20443889  0.34161543  0.30123745    -0.33000
C1086       C  0.23064854  0.32905366  0.29112238    -0.10500
C1087       C  0.25502338  0.33833506  0.30998032    -0.29300
N1088       N  0.24506688  0.40642511  0.40321461    -0.45900
C1089       C  0.21931029  0.42037132  0.41262889    -0.05200
C1090       C  0.19457980  0.41057745  0.39450437    -0.22600
H1091       H  0.16858638  0.37730527  0.34164694     0.19200
H1092       H  0.28056234  0.37043272  0.36336197     0.18000
H1093       H  0.27834932  0.33111798  0.30817730     0.14300
H1094       H  0.17163674  0.41916171  0.39534248     0.14200
H1095       H  0.18278804  0.33782290  0.29200910     0.32300
H1096       H  0.26696323  0.41076399  0.41142438     0.35100
C1097       C  0.41196519  0.21467313  0.34392214     0.20700
C1098       C  0.40299488  0.20165686  0.31448730    -0.39200
C1099       C  0.37752513  0.21519762  0.29982827     0.19700
C1100       C  0.36217051  0.23945708  0.31383620     0.22300
C1101       C  0.37146151  0.25281267  0.34277803    -0.39700
C1102       C  0.39702941  0.23963449  0.35710641     0.21100
N1103       N  0.43549362  0.20631745  0.36261623    -0.33000
C1104       C  0.43562433  0.22654287  0.38733673    -0.10500
C1105       C  0.41216043  0.24774256  0.38471300    -0.29300
N1106       N  0.33907557  0.24861740  0.29524110    -0.45900
C1107       C  0.33985627  0.23057286  0.26880534    -0.05200
C1108       C  0.36354140  0.20931915  0.27065463    -0.22600
H1109       H  0.41510152  0.18268909  0.30369125     0.19200
H1110       H  0.35982161  0.27230031  0.35316118     0.18000
H1111       H  0.40687835  0.26643982  0.40088587     0.14300
H1112       H  0.37008116  0.19254023  0.25282103     0.14200
H1113       H  0.45091124  0.18853394  0.35847599     0.32300
H1114       H  0.32442150  0.26700132  0.29969460     0.35100
C1115       C  0.39915445  0.40546898  0.19246218     0.20700
C1116       C  0.37589220  0.39306953  0.21075472    -0.39200
C1117       C  0.36016413  0.36860174  0.19653079     0.19700
C1118       C  0.36738282  0.35717400  0.16657249     0.22300
C1119       C  0.39023744  0.36992563  0.14809328    -0.39700
C1120       C  0.40571955  0.39455612  0.16213658     0.21100
N1121       N  0.41829803  0.42786686  0.20106605    -0.33000
C1122       C  0.43700404  0.43145190  0.17591606    -0.10500
C1123       C  0.42968093  0.41120356  0.15109518    -0.29300
N1124       N  0.35107956  0.33217013  0.15958417    -0.45900
C1125       C  0.33304624  0.32772650  0.18506033    -0.05200
C1126       C  0.33783570  0.35020413  0.20849270    -0.22600
H1127       H  0.37091400  0.40134373  0.23461604     0.19200
H1128       H  0.39607558  0.36080251  0.12480633     0.18000
H1129       H  0.44084320  0.40853863  0.12835210     0.14300
H1130       H  0.32778876  0.35165113  0.23194520     0.14200
H1131       H  0.41865430  0.43995393  0.22273807     0.32300
H1132       H  0.35283894  0.31833783  0.13918437     0.35100
C1133       C  0.11872306  0.25860091  0.05896548     0.20700
C1134       C  0.14084853  0.24027470  0.07373447    -0.39200
C1135       C  0.15084798  0.25029225  0.10386828     0.19700
C1136       C  0.13961013  0.27644412  0.11855696     0.22300
C1137       C  0.11784610  0.29526669  0.10337632    -0.39700
C1138       C  0.10794096  0.28534733  0.07290995     0.21100
N1139       N  0.10365748  0.25234273  0.03168901    -0.33000
C1140       C  0.08326608  0.27534466  0.02797320    -0.10500
C1141       C  0.08546148  0.29668541  0.05288343    -0.29300
N1142       N  0.15156532  0.27959605  0.14827894    -0.45900
C1143       C  0.17069791  0.25537553  0.15202705    -0.05200
C1144       C  0.17092147  0.23681430  0.12480033    -0.22600
H1145       H  0.14896006  0.21916863  0.06301818     0.19200
H1146       H  0.10860936  0.31551066  0.11482687     0.18000
H1147       H  0.07114125  0.31651683  0.05692504     0.14300
H1148       H  0.18355454  0.21574379  0.12117116     0.14200
H1149       H  0.10632163  0.23302090  0.01708741     0.32300
H1150       H  0.14697329  0.29693361  0.16489284     0.35100
C1151       C  0.26401953  0.10316808  0.03891942     0.20700
C1152       C  0.24589354  0.11759389  0.06165630    -0.39200
C1153       C  0.26133993  0.13368079  0.08562096     0.19700
C1154       C  0.29245289  0.13559949  0.08675127     0.22300
C1155       C  0.31062867  0.12124887  0.06389688    -0.39700
C1156       C  0.29516898  0.10481285  0.04004091     0.21100
N1157       N  0.25490621  0.08350102  0.01620505    -0.33000
C1158       C  0.28040166  0.07202266  0.00324112    -0.10500
C1159       C  0.30599823  0.08515002  0.01701446    -0.29300
N1160       N  0.30156912  0.15189685  0.11236699    -0.45900
C1161       C  0.27598351  0.16020298  0.12749864    -0.05200
C1162       C  0.25047480  0.14930044  0.11157471    -0.22600
H1163       H  0.22161823  0.11551515  0.06136350     0.19200
H1164       H  0.33497514  0.12186536  0.06528776     0.18000
H1165       H  0.32929712  0.07888944  0.01299046     0.14300
H1166       H  0.22711218  0.15289570  0.11780201     0.14200
H1167       H  0.23285264  0.07628943  0.01185770     0.32300
H1168       H  0.32367547  0.15743192  0.11883230     0.35100
C1169       C  0.14397857  0.86186781  0.22698167     0.20700
C1170       C  0.13328993  0.88941585  0.21386581    -0.39200
C1171       C  0.10735189  0.90144944  0.22789373     0.19700
C1172       C  0.09356928  0.88756279  0.25357268     0.22300
C1173       C  0.10410689  0.85983803  0.26649588    -0.39700
C1174       C  0.12965741  0.84740003  0.25194769     0.21100
N1175       N  0.16704369  0.84480521  0.21649477    -0.33000
C1176       C  0.16693263  0.81904622  0.23443675    -0.10500
C1177       C  0.14408813  0.81978939  0.25692009    -0.29300
N1178       N  0.06907014  0.90350535  0.26233587    -0.45900
C1179       C  0.06706062  0.92717112  0.24155678    -0.05200
C1180       C  0.09041082  0.92676185  0.21973712    -0.22600
H1181       H  0.14386054  0.90017936  0.19364369     0.19200
H1182       H  0.09277313  0.84839676  0.28580021     0.18000
H1183       H  0.13826217  0.80212694  0.27382352     0.14300
H1184       H  0.09446067  0.94289522  0.20065704     0.14200
H1185       H  0.18102328  0.84967391  0.19728066     0.32300
H1186       H  0.05429180  0.89829497  0.28073709     0.35100
C1187       C  0.91021315  0.89669246  0.22179210     0.20700
C1188       C  0.89840939  0.87165509  0.20473973    -0.39200
C1189       C  0.87397112  0.85711233  0.21892047     0.19700
C1190       C  0.86180243  0.86719058  0.24751462     0.22300
C1191       C  0.87388498  0.89192614  0.26479470    -0.39700
C1192       C  0.89871613  0.90604595  0.25096260     0.21100
N1193       N  0.93373383  0.91402441  0.21374338    -0.33000
C1194       C  0.93763842  0.93404160  0.23833608    -0.10500
C1195       C  0.91622930  0.92982709  0.26197648    -0.29300
N1196       N  0.83745351  0.85078259  0.25485691    -0.45900
C1197       C  0.83434747  0.82985203  0.23099411    -0.05200
C1198       C  0.85687329  0.83285149  0.20829618    -0.22600
H1199       H  0.90754757  0.86408492  0.18210012     0.19200
H1200       H  0.86462445  0.89961986  0.28733116     0.18000
H1201       H  0.91400101  0.94229283  0.28431894     0.14300
H1202       H  0.85933329  0.82014284  0.18612487     0.14200
H1203       H  0.94695800  0.91170960  0.19335636     0.32300
H1204       H  0.82339124  0.85407961  0.27445181     0.35100
C1205       C  0.86916495  0.12919934  0.25487323     0.20700
C1206       C  0.88154825  0.10471014  0.27243898    -0.39200
C1207       C  0.90802127  0.09194041  0.26012069     0.19700
C1208       C  0.92087106  0.10250708  0.23222639     0.22300
C1209       C  0.90887817  0.12738393  0.21509200    -0.39700
C1210       C  0.88266585  0.14038160  0.22762032     0.21100
N1211       N  0.84302742  0.14391082  0.26017653    -0.33000
C1212       C  0.84025748  0.16476443  0.23632724    -0.10500
C1213       C  0.86460393  0.16349978  0.21575311    -0.29300
N1214       N  0.94433016  0.08481006  0.22395023    -0.45900
C1215       C  0.94654071  0.06310840  0.24693922    -0.05200
C1216       C  0.92461135  0.06690962  0.27014224    -0.22600
H1217       H  0.87088144  0.09567926  0.29351698     0.19200
H1218       H  0.91869736  0.13541449  0.19310234     0.18000
H1219       H  0.86784672  0.17669317  0.19416201     0.14300
H1220       H  0.92045238  0.05237914  0.29055377     0.14200
H1221       H  0.82780287  0.13969097  0.27845057     0.32300
H1222       H  0.95761393  0.08695536  0.20363526     0.35100
C1223       C  0.14282976  0.12741154  0.25983584     0.20700
C1224       C  0.11974371  0.11462580  0.27802462    -0.39200
C1225       C  0.10517132  0.08931484  0.26414852     0.19700
C1226       C  0.11281747  0.07798161  0.23426592     0.22300
C1227       C  0.13626944  0.09030829  0.21644623    -0.39700
C1228       C  0.15106833  0.11529892  0.23047497     0.21100
N1229       N  0.15813920  0.15322561  0.26615923    -0.33000
C1230       C  0.17642846  0.15733672  0.24079126    -0.10500
C1231       C  0.17293555  0.13390764  0.21827299    -0.29300
N1232       N  0.09397820  0.05568521  0.22505433    -0.45900
C1233       C  0.07437091  0.05247427  0.24933895    -0.05200
C1234       C  0.08076989  0.07280747  0.27436907    -0.22600
H1235       H  0.11291114  0.12434295  0.30073194     0.19200
H1236       H  0.14186935  0.08175839  0.19285424     0.18000
H1237       H  0.18335944  0.13203433  0.19504228     0.14300
H1238       H  0.06836754  0.07606683  0.29628273     0.14200
H1239       H  0.15546578  0.16779128  0.28587173     0.32300
H1240       H  0.09411090  0.04372041  0.20330715     0.35100
loop_ 
_geom_bond_atom_site_label_1 
_geom_bond_atom_site_label_2 
_geom_bond_distance 
_geom_bond_site_symmetry_2 
_ccdc_geom_bond_type 
O1           Ni9   1.900       .  S
O1           C11   1.277       .  A
O2           Ni9   1.909   1_645  S
O2           C12   1.279       .  A
O3           Ni9   1.910   1_545  S
O3           C13   1.280       .  A
O4           Ni9   1.921   1_655  S
O4           C14   1.281       .  A
O5          Ni10   1.915   1_655  S
O5           C14   1.280       .  A
O6          Ni10   1.924   1_545  S
O6           C13   1.282       .  A
O7          Ni10   1.902   1_645  S
O7           C12   1.277       .  A
O8          Ni10   1.909       .  S
O8           C11   1.279       .  A
Ni9         Ni10   2.394       .  S
C11        C1179   1.451       .  S
C12        C1215   1.453       .  S
C13        C1233   1.468       .  S
C14        C1194   1.468       .  S
O15         Ni21   1.929       .  S
O15          C36   1.270       .  A
O16         Ni39   1.880       .  S
O16          C25   1.261       .  A
O17         Ni21   1.922       .  S
O17         Ni39   1.894       .  S
O17         Ni33   1.914       .  S
O17          H40   0.966       .  S
C18          O35   1.274       .  A
C18          O27   1.275       .  A
C18        C1125   1.477       .  S
O19         Ni38   1.926       .  S
O19          C25   1.269       .  A
O20         Ni38   1.915       .  S
O20          C22   1.269       .  A
Ni21         O24   1.933       .  S
Ni21         O26   1.921       .  S
C22          O32   1.267       .  A
C22        C1107   1.463       .  S
O23         Ni39   1.916       .  S
O23          C29   1.275       .  A
O24          C29   1.277       .  A
C25        C1161   1.456       .  S
O26          C28   1.268       .  A
O27         Ni38   1.930       .  S
C28          O34   1.264       .  A
C28        C1143   1.467       .  S
C29        C1230   1.473       .  S
H30          O31   0.966       .  S
O31         Ni39   1.921       .  S
O31         Ni33   1.897       .  S
O31         Ni38   1.922       .  S
O32         Ni33   1.904       .  S
Ni33         O37   1.881       .  S
Ni33         O35   1.919       .  S
O34         Ni39   1.901       .  S
C36          O37   1.262       .  A
C36        C1086   1.455       .  S
O41         Ni47   1.944       .  S
O41          C62   1.274       .  A
O42         Ni65   1.902       .  S
O42          C51   1.266       .  A
O43         Ni47   1.922       .  S
O43         Ni65   1.908       .  S
O43         Ni59   1.899       .  S
O43          H66   0.965       .  S
C44          O61   1.268       .  A
C44          O53   1.276       .  A
C44        C1035   1.460       .  S
O45         Ni64   1.947       .  S
O45          C51   1.275       .  A
O46         Ni64   1.927       .  S
O46          C48   1.273       .  A
Ni47         O50   1.929       .  S
Ni47         O52   1.925       .  S
C48          O58   1.272       .  A
C48        C1017   1.482       .  S
O49         Ni65   1.894       .  S
O49          C55   1.270       .  A
O50          C55   1.276       .  A
C51        C1068   1.481       .  S
O52          C54   1.272       .  A
O53         Ni64   1.933       .  S
C54          O60   1.275       .  A
C54        C1050   1.487       .  S
C55        C1212   1.458       .  S
H56          O57   0.967       .  S
O57         Ni65   1.907       .  S
O57         Ni59   1.915       .  S
O57         Ni64   1.929       .  S
O58         Ni59   1.925       .  S
Ni59         O63   1.902       .  S
Ni59         O61   1.894       .  S
O60         Ni65   1.937       .  S
C62          O63   1.265       .  A
C62         C996   1.479       .  S
O67         Ni73   1.942       .  S
O67          C88   1.274       .  A
O68         Ni91   1.885       .  S
O68          C77   1.264       .  A
O69         Ni73   1.920       .  S
O69         Ni91   1.900       .  S
O69         Ni85   1.910       .  S
O69          H92   0.966       .  S
C70          O87   1.271       .  A
C70          O79   1.276       .  A
C70        C1197   1.468       .  S
O71         Ni90   1.935       .  S
O71          C77   1.272       .  A
O72         Ni90   1.919       .  S
O72          C74   1.270       .  A
Ni73         O76   1.937       .  S
Ni73         O78   1.926       .  S
C74          O84   1.275       .  A
C74         C981   1.484       .  S
O75         Ni91   1.919       .  S
O75          C81   1.275       .  A
O76          C81   1.278       .  A
C77         C924   1.462       .  S
O78          C80   1.272       .  A
O79         Ni90   1.932       .  S
C80          O86   1.274       .  A
C80         C906   1.491       .  S
C81         C942   1.481       .  S
H82          O83   0.966       .  S
O83         Ni91   1.915       .  S
O83         Ni85   1.901       .  S
O83         Ni90   1.919       .  S
O84         Ni85   1.939       .  S
Ni85         O89   1.884       .  S
Ni85         O87   1.907       .  S
O86         Ni91   1.938       .  S
C88          O89   1.263       .  A
C88         C960   1.464       .  S
O93         Ni99   1.930       .  S
O93         C114   1.270       .  A
O94        Ni117   1.894       .  S
O94         C103   1.263       .  A
O95         Ni99   1.916       .  S
O95        Ni117   1.903       .  S
O95        Ni111   1.899       .  S
O95         H118   0.966       .  S
C96         O113   1.268       .  A
C96         O105   1.274       .  A
C96        C1176   1.456       .  S
O97        Ni116   1.922       .  S
O97         C103   1.268       .  A
O98        Ni116   1.906       .  S
O98         C100   1.267       .  A
Ni99        O102   1.925       .  S
Ni99        O104   1.908       .  S
C100        O110   1.269       .  A
C100        C888   1.468       .  S
O101       Ni117   1.890       .  S
O101        C107   1.269       .  A
O102        C107   1.274       .  A
C103        C837   1.459       .  S
O104        C106   1.268       .  A
O105       Ni116   1.922       .  S
C106        O112   1.269       .  A
C106        C816   1.467       .  S
C107        C855   1.456       .  S
H108        O109   0.966       .  S
O109       Ni117   1.901       .  S
O109       Ni111   1.904       .  S
O109       Ni116   1.917       .  S
O110       Ni111   1.924       .  S
Ni111       O115   1.890       .  S
Ni111       O113   1.892       .  S
O112       Ni117   1.921       .  S
C114        O115   1.263       .  A
C114        C873   1.462       .  S
O119       Ni127   1.907       .  S
O119        C129   1.280       .  A
O120       Ni127   1.908   1_545  S
O120        C130   1.279       .  A
O121       Ni127   1.914       .  S
O121        C131   1.280   1_556  A
O122       Ni127   1.915   1_545  S
O122        C132   1.280       .  A
O123       Ni128   1.912   1_545  S
O123        C132   1.280       .  A
O124       Ni128   1.907       .  S
O124        C131   1.279   1_556  A
O125       Ni128   1.903   1_545  S
O125        C130   1.279       .  A
O126       Ni128   1.907       .  S
O126        C129   1.279       .  A
Ni127      Ni128   2.394       .  S
C129        C801   1.459       .  S
C130       C1158   1.457   1_556  S
C131        C870   1.462       .  S
C132        C780   1.466       .  S
O133       Ni141   1.929   1_655  S
O133        C143   1.283   1_556  A
O134       Ni141   1.932       .  S
O134        C144   1.283       .  A
O135       Ni141   1.911   1_655  S
O135        C145   1.280       .  A
O136       Ni141   1.916       .  S
O136        C146   1.280   1_556  A
O137       Ni142   1.912       .  S
O137        C146   1.280   1_556  A
O138       Ni142   1.917   1_655  S
O138        C145   1.281       .  A
O139       Ni142   1.916       .  S
O139        C144   1.281       .  A
O140       Ni142   1.922   1_655  S
O140        C143   1.282   1_556  A
Ni141      Ni142   2.390       .  S
C143       C1071   1.480       .  S
C144        C762   1.477       .  S
C145        C744   1.466       .  S
C146       C1140   1.463       .  S
O147       Ni155   1.934   1_545  S
O147        C157   1.284       .  A
O148       Ni155   1.935       .  S
O148        C158   1.284   1_556  A
O149       Ni155   1.934   1_545  S
O149        C159   1.283   1_556  A
O150       Ni155   1.927       .  S
O150        C160   1.282       .  A
O151       Ni156   1.931       .  S
O151        C160   1.283       .  A
O152       Ni156   1.930   1_545  S
O152        C159   1.283   1_556  A
O153       Ni156   1.926       .  S
O153        C158   1.282   1_556  A
O154       Ni156   1.927   1_545  S
O154        C157   1.282       .  A
Ni155      Ni156   2.386       .  S
C157        C726   1.484       .  S
C158        C978   1.485       .  S
C159       C1053   1.486       .  S
C160        C711   1.481       .  S
O161       Ni169   1.929       .  S
O161        C171   1.283   1_556  A
O162       Ni169   1.924   1_655  S
O162        C172   1.282       .  A
O163       Ni169   1.915       .  S
O163        C173   1.280       .  A
O164       Ni169   1.918   1_655  S
O164        C174   1.281   1_556  A
O165       Ni170   1.902   1_655  S
O165        C174   1.278   1_556  A
O166       Ni170   1.895       .  S
O166        C173   1.276       .  A
O167       Ni170   1.911   1_655  S
O167        C172   1.280       .  A
O168       Ni170   1.906       .  S
O168        C171   1.279   1_556  A
Ni169      Ni170   2.393       .  S
C171        C891   1.468       .  S
C172        C693   1.471       .  S
C173        C675   1.450       .  S
C174        C963   1.462       .  S
O175       Ni181   1.932       .  S
O175        C196   1.272       .  A
O176       Ni199   1.889       .  S
O176        C185   1.264       .  A
O177       Ni181   1.914       .  S
O177       Ni199   1.896       .  S
O177       Ni193   1.902       .  S
O177        H200   0.966       .  S
C178        O195   1.270       .  A
C178        O187   1.276       .  A
C178        C672   1.455       .  S
O179       Ni198   1.927       .  S
O179        C185   1.270       .  A
O180       Ni198   1.912       .  S
O180        C182   1.269       .  A
Ni181       O184   1.932       .  S
Ni181       O186   1.917       .  S
C182        O192   1.276       .  A
C182        C657   1.488       .  S
O183       Ni199   1.880       .  S
O183        C189   1.268       .  A
O184        C189   1.276       .  A
C185        C600   1.458       .  S
O186        C188   1.270       .  A
O187       Ni198   1.924       .  S
C188        O194   1.276       .  A
C188        C639   1.488       .  S
C189        C618   1.453       .  S
H190        O191   0.966       .  S
O191       Ni199   1.898       .  S
O191       Ni193   1.893       .  S
O191       Ni198   1.911       .  S
O192       Ni193   1.947       .  S
Ni193       O197   1.886       .  S
Ni193       O195   1.891       .  S
O194       Ni199   1.948       .  S
C196        O197   1.264       .  A
C196        C798   1.459       .  S
O201       Ni209   1.924   1_655  S
O201        C211   1.281       .  A
O202       Ni209   1.915   1_545  S
O202        C212   1.280       .  A
O203       Ni209   1.933   1_645  S
O203        C213   1.283       .  A
O204       Ni209   1.923       .  S
O204        C214   1.282       .  A
O205       Ni210   1.938       .  S
O205        C214   1.285       .  A
O206       Ni210   1.928   1_645  S
O206        C213   1.283       .  A
O207       Ni210   1.921   1_545  S
O207        C212   1.281       .  A
O208       Ni210   1.909   1_655  S
O208        C211   1.279       .  A
Ni209      Ni210   2.389       .  S
C211        C546   1.467       .  S
C212        C582   1.466       .  S
C213        C564   1.484       .  S
C214        C654   1.484       .  S
O215       Ni221   1.949       .  S
O215        C236   1.276       .  A
O216       Ni239   1.883       .  S
O216        C225   1.263       .  A
O217       Ni221   1.922       .  S
O217       Ni239   1.901       .  S
O217       Ni233   1.907       .  S
O217        H240   0.966       .  S
C218        O235   1.270       .  A
C218        O227   1.273       .  A
C218        C585   1.471       .  S
O219       Ni238   1.925       .  S
O219        C225   1.268       .  A
O220       Ni238   1.907       .  S
O220        C222   1.267       .  A
Ni221       O224   1.940       .  S
Ni221       O226   1.920       .  S
C222        O232   1.274       .  A
C222        C765   1.478       .  S
O223       Ni239   1.900       .  S
O223        C229   1.269       .  A
O224        C229   1.278       .  A
C225        C510   1.457       .  S
O226        C228   1.272       .  A
O227       Ni238   1.928       .  S
C228        O234   1.277       .  A
C228        C492   1.490       .  S
C229        C528   1.470       .  S
H230        O231   0.966       .  S
O231       Ni239   1.911       .  S
O231       Ni233   1.906       .  S
O231       Ni238   1.927       .  S
O232       Ni233   1.943       .  S
Ni233       O237   1.876       .  S
Ni233       O235   1.908       .  S
O234       Ni239   1.948       .  S
C236        O237   1.261       .  A
C236        C783   1.466       .  S
O241       Ni247   1.947       .  S
O241        C262   1.276       .  A
O242       Ni265   1.877       .  S
O242        C251   1.261       .  A
O243       Ni247   1.927       .  S
O243       Ni265   1.898       .  S
O243       Ni259   1.918       .  S
O243        H266   0.966       .  S
C244        O261   1.274       .  A
C244        O253   1.276       .  A
C244        C567   1.485       .  S
O245       Ni264   1.937       .  S
O245        C251   1.273       .  A
O246       Ni264   1.922       .  S
O246        C248   1.271       .  A
Ni247       O250   1.946       .  S
Ni247       O252   1.926       .  S
C248        O258   1.274       .  A
C248        C729   1.484       .  S
O249       Ni265   1.928       .  S
O249        C255   1.277       .  A
O250        C255   1.279       .  A
C251        C456   1.459       .  S
O252        C254   1.272       .  A
O253       Ni264   1.940       .  S
C254        O260   1.272       .  A
C254        C438   1.487       .  S
C255        C474   1.492       .  S
H256        O257   0.966       .  S
O257       Ni265   1.925       .  S
O257       Ni259   1.901       .  S
O257       Ni264   1.928       .  S
O258       Ni259   1.932       .  S
Ni259       O263   1.877       .  S
Ni259       O261   1.922       .  S
O260       Ni265   1.933       .  S
C262        O263   1.261       .  A
C262        C747   1.465       .  S
O267       Ni273   1.943       .  S
O267        C288   1.275       .  A
O268       Ni291   1.891       .  S
O268        C277   1.263       .  A
O269       Ni273   1.921       .  S
O269       Ni291   1.903       .  S
O269       Ni285   1.903       .  S
O269        H292   0.966       .  S
C270        O287   1.271       .  A
C270        O279   1.275       .  A
C270        C423   1.466       .  S
O271       Ni290   1.940       .  S
O271        C277   1.273       .  A
O272       Ni290   1.919       .  S
O272        C274   1.271       .  A
Ni273       O276   1.930       .  S
Ni273       O278   1.928       .  S
C274        O284   1.275       .  A
C274        C402   1.483       .  S
O275       Ni291   1.906       .  S
O275        C281   1.272       .  A
O276        C281   1.277       .  A
C277        C690   1.470       .  S
O278        C280   1.272       .  A
O279       Ni290   1.926       .  S
C280        O286   1.270       .  A
C280        C708   1.484       .  S
C281        C549   1.464       .  S
H282        O283   0.966       .  S
O283       Ni291   1.909       .  S
O283       Ni285   1.907       .  S
O283       Ni290   1.918       .  S
O284       Ni285   1.937       .  S
Ni285       O289   1.886       .  S
Ni285       O287   1.910       .  S
O286       Ni291   1.925       .  S
C288        O289   1.265       .  A
C288        C384   1.467       .  S
O293       Ni301   1.918       .  S
O293        C303   1.280       .  A
O294       Ni301   1.907       .  S
O294        C304   1.279       .  A
O295       Ni301   1.942       .  S
O295        C305   1.286       .  A
O296       Ni301   1.937       .  S
O296        C306   1.284       .  A
O297       Ni302   1.932       .  S
O297        C306   1.283       .  A
O298       Ni302   1.922       .  S
O298        C305   1.282       .  A
O299       Ni302   1.922       .  S
O299        C304   1.281       .  A
O300       Ni302   1.916       .  S
O300        C303   1.280       .  A
Ni301      Ni302   2.388       .  S
C303        C531   1.467       .  S
C304        C420   1.466       .  S
C305        C636   1.488       .  S
C306        C477   1.487       .  S
O307       Ni315   1.906       .  S
O307        C317   1.279       .  A
O308       Ni315   1.913       .  S
O308        C318   1.279       .  A
O309       Ni315   1.931       .  S
O309        C319   1.283       .  A
O310       Ni315   1.932       .  S
O310        C320   1.284       .  A
O311       Ni316   1.920       .  S
O311        C320   1.280       .  A
O312       Ni316   1.926       .  S
O312        C319   1.283       .  A
O313       Ni316   1.902       .  S
O313        C318   1.279       .  A
O314       Ni316   1.918       .  S
O314        C317   1.281       .  A
Ni315      Ni316   2.391       .  S
C317       C1032   1.464       .  S
C318        C852   1.454       .  S
C319        C945   1.481       .  S
C320       C1122   1.479       .  S
O321       Ni329   1.933       .  S
O321        C331   1.283       .  A
O322       Ni329   1.931       .  S
O322        C332   1.283       .  A
O323       Ni329   1.922       .  S
O323        C333   1.282       .  A
O324       Ni329   1.923       .  S
O324        C334   1.282       .  A
O325       Ni330   1.930       .  S
O325        C334   1.283       .  A
O326       Ni330   1.935       .  S
O326        C333   1.283       .  A
O327       Ni330   1.935       .  S
O327        C332   1.284       .  A
O328       Ni330   1.936       .  S
O328        C331   1.284       .  A
Ni329      Ni330   2.386       .  S
C331        C909   1.488       .  S
C332        C441   1.487       .  S
C333        C405   1.481       .  S
C334       C1014   1.479       .  S
O335       Ni343   1.907       .  S
O335        C345   1.280       .  A
O336       Ni343   1.905       .  S
O336        C346   1.278       .  A
O337       Ni343   1.907       .  S
O337        C347   1.279       .  A
O338       Ni343   1.897       .  S
O338        C348   1.277       .  A
O339       Ni344   1.912       .  S
O339        C348   1.279       .  A
O340       Ni344   1.911       .  S
O340        C347   1.280       .  A
O341       Ni344   1.924       .  S
O341        C346   1.283       .  A
O342       Ni344   1.919       .  S
O342        C345   1.281       .  A
Ni343      Ni344   2.394       .  S
C345        C387   1.465       .  S
C346        C819   1.464       .  S
C347        C927   1.460       .  S
C348        C621   1.450       .  S
O349       Ni357   1.904       .  S
O349        C359   1.279       .  A
O350       Ni357   1.904       .  S
O350        C360   1.278       .  A
O351       Ni357   1.900       .  S
O351        C361   1.278       .  A
O352       Ni357   1.900       .  S
O352        C362   1.278       .  A
O353       Ni358   1.913       .  S
O353        C362   1.280       .  A
O354       Ni358   1.915       .  S
O354        C361   1.280       .  A
O355       Ni358   1.909       .  S
O355        C360   1.280       .  A
O356       Ni358   1.907       .  S
O356        C359   1.279       .  A
Ni357      Ni358   2.395       .  S
C359       C1089   1.457       .  S
C360        C603   1.457       .  S
C361        C513   1.458       .  S
C362        C834   1.457       .  S
O363       Ni371   1.926       .  S
O363        C373   1.282       .  A
O364       Ni371   1.926       .  S
O364        C374   1.283       .  A
O365       Ni371   1.907       .  S
O365        C375   1.279       .  A
O366       Ni371   1.908       .  S
O366        C376   1.280       .  A
O367       Ni372   1.904       .  S
O367        C376   1.278       .  A
O368       Ni372   1.910       .  S
O368        C375   1.278       .  A
O369       Ni372   1.931       .  S
O369        C374   1.283       .  A
O370       Ni372   1.939       .  S
O370        C373   1.286       .  A
Ni371      Ni372   2.391       .  S
C373        C495   1.488       .  S
C374        C999   1.482       .  S
C375       C1104   1.455       .  S
C376        C459   1.457       .  S
C377        C382   1.385       .  A
C377        C378   1.407       .  A
C377        N383   1.346       .  A
C378        C379   1.406       .  A
C378        H389   1.082       .  S
C379        C388   1.382       .  A
C379        C380   1.385       .  A
C380        C381   1.396       .  A
C380        N386   1.337       .  A
C381        C382   1.395       .  A
C381        H390   1.083       .  S
C382        C385   1.369       .  A
N383        C384   1.357       .  A
N383        H393   1.045       .  S
C384        C385   1.391       .  A
C385        H391   1.083       .  S
N386        C387   1.352       .  A
N386        H394   1.045       .  S
C387        C388   1.397       .  A
C388        H392   1.082       .  S
C395        C400   1.384       .  A
C395        C396   1.404       .  A
C395        N401   1.345       .  A
C396        C397   1.403       .  A
C396        H407   1.082       .  S
C397        C406   1.379       .  A
C397        C398   1.384       .  A
C398        C399   1.411       .  A
C398        N404   1.351       .  A
C399        C400   1.411       .  A
C399        H408   1.082       .  S
C400        C403   1.387       .  A
N401        C402   1.356       .  A
N401        H411   1.045       .  S
C402        C403   1.401       .  A
C403        H409   1.082       .  S
N404        C405   1.359       .  A
N404        H412   1.045       .  S
C405        C406   1.394       .  A
C406        H410   1.082       .  S
C413        C418   1.385       .  A
C413        C414   1.405       .  A
C413        N419   1.344       .  A
C414        C415   1.405       .  A
C414        H425   1.082       .  S
C415        C424   1.381       .  A
C415        C416   1.385       .  A
C416        C417   1.399       .  A
C416        N422   1.340       .  A
C417        C418   1.398       .  A
C417        H426   1.082       .  S
C418        C421   1.373       .  A
N419        C420   1.356       .  A
N419        H429   1.045       .  S
C420        C421   1.392       .  A
C421        H427   1.083       .  S
N422        C423   1.352       .  A
N422        H430   1.045       .  S
C423        C424   1.397       .  A
C424        H428   1.083       .  S
C431        C436   1.383       .  A
C431        C432   1.410       .  A
C431        N437   1.351       .  A
C432        C433   1.410       .  A
C432        H443   1.082       .  S
C433        C442   1.387       .  A
C433        C434   1.383       .  A
C434        C435   1.407       .  A
C434        N440   1.348       .  A
C435        C436   1.407       .  A
C435        H444   1.082       .  S
C436        C439   1.381       .  A
N437        C438   1.359       .  A
N437        H447   1.044       .  S
C438        C439   1.399       .  A
C439        H445   1.083       .  S
N440        C441   1.358       .  A
N440        H448   1.045       .  S
C441        C442   1.400       .  A
C442        H446   1.082       .  S
C449        C454   1.385       .  A
C449        C450   1.397       .  A
C449        N455   1.336       .  A
C450        C451   1.395       .  A
C450        H461   1.083       .  S
C451        C460   1.371       .  A
C451        C452   1.385       .  A
C452        C453   1.401       .  A
C452        N458   1.339       .  A
C453        C454   1.399       .  A
C453        H462   1.082       .  S
C454        C457   1.377       .  A
N455        C456   1.353       .  A
N455        H465   1.045       .  S
C456        C457   1.393       .  A
C457        H463   1.082       .  S
N458        C459   1.354       .  A
N458        H466   1.045       .  S
C459        C460   1.391       .  A
C460        H464   1.083       .  S
C467        C472   1.383       .  A
C467        C468   1.409       .  A
C467        N473   1.350       .  A
C468        C469   1.409       .  A
C468        H479   1.082       .  S
C469        C478   1.385       .  A
C469        C470   1.383       .  A
C470        C471   1.411       .  A
C470        N476   1.351       .  A
C471        C472   1.411       .  A
C471        H480   1.082       .  S
C472        C475   1.386       .  A
N473        C474   1.359       .  A
N473        H483   1.045       .  S
C474        C475   1.401       .  A
C475        H481   1.082       .  S
N476        C477   1.359       .  A
N476        H484   1.045       .  S
C477        C478   1.398       .  A
C478        H482   1.082       .  S
C485        C490   1.383       .  A
C485        C486   1.411       .  A
C485        N491   1.350       .  A
C486        C487   1.410       .  A
C486        H497   1.082       .  S
C487        C496   1.388       .  A
C487        C488   1.383       .  A
C488        C489   1.409       .  A
C488        N494   1.348       .  A
C489        C490   1.408       .  A
C489        H498   1.082       .  S
C490        C493   1.386       .  A
N491        C492   1.360       .  A
N491        H501   1.045       .  S
C492        C493   1.400       .  A
C493        H499   1.082       .  S
N494        C495   1.358       .  A
N494        H502   1.045       .  S
C495        C496   1.400       .  A
C496        H500   1.082       .  S
C503        C508   1.386       .  A
C503        C504   1.403       .  A
C503        N509   1.342       .  A
C504        C505   1.402       .  A
C504        H515   1.083       .  S
C505        C514   1.378       .  A
C505        C506   1.386       .  A
C506        C507   1.395       .  A
C506        N512   1.335       .  A
C507        C508   1.392       .  A
C507        H516   1.083       .  S
C508        C511   1.367       .  A
N509        C510   1.355       .  A
N509        H519   1.045       .  S
C510        C511   1.388       .  A
C511        H517   1.083       .  S
N512        C513   1.351       .  A
N512        H520   1.045       .  S
C513        C514   1.394       .  A
C514        H518   1.082       .  S
C521        C526   1.385       .  A
C521        C522   1.404       .  A
C521        N527   1.342       .  A
C522        C523   1.402       .  A
C522        H533   1.083       .  S
C523        C532   1.378       .  A
C523        C524   1.385       .  A
C524        C525   1.403       .  A
C524        N530   1.343       .  A
C525        C526   1.402       .  A
C525        H534   1.082       .  S
C526        C529   1.379       .  A
N527        C528   1.356       .  A
N527        H537   1.045       .  S
C528        C529   1.395       .  A
C529        H535   1.082       .  S
N530        C531   1.354       .  A
N530        H538   1.045       .  S
C531        C532   1.394       .  A
C532        H536   1.082       .  S
C539        C544   1.385       .  A
C539        C540   1.406       .  A
C539        N545   1.346       .  A
C540        C541   1.405       .  A
C540        H551   1.082       .  S
C541        C550   1.381       .  A
C541        C542   1.385       .  A
C542        C543   1.398       .  A
C542        N548   1.339       .  A
C543        C544   1.398       .  A
C543        H552   1.082       .  S
C544        C547   1.372       .  A
N545        C546   1.356       .  A
N545        H555   1.045       .  S
C546        C547   1.392       .  A
C547        H553   1.083       .  S
N548        C549   1.352       .  A
N548        H556   1.045       .  S
C549        C550   1.396       .  A
C550        H554   1.083       .  S
C557        C562   1.384       .  A
C557        C558   1.409       .  A
C557        N563   1.349       .  A
C558        C559   1.409       .  A
C558        H569   1.082       .  S
C559        C568   1.385       .  A
C559        C560   1.384       .  A
C560        C561   1.407       .  A
C560        N566   1.347       .  A
C561        C562   1.406       .  A
C561        H570   1.082       .  S
C562        C565   1.382       .  A
N563        C564   1.359       .  A
N563        H573   1.045       .  S
C564        C565   1.397       .  A
C565        H571   1.082       .  S
N566        C567   1.357       .  A
N566        H574   1.045       .  S
C567        C568   1.400       .  A
C568        H572   1.083       .  S
C575        C580   1.385       .  A
C575        C576   1.403       .  A
C575        N581   1.344       .  A
C576        C577   1.403       .  A
C576        H587   1.082       .  S
C577        C586   1.376       .  A
C577        C578   1.385       .  A
C578        C579   1.404       .  A
C578        N584   1.345       .  A
C579        C580   1.403       .  A
C579        H588   1.082       .  S
C580        C583   1.378       .  A
N581        C582   1.354       .  A
N581        H591   1.045       .  S
C582        C583   1.393       .  A
C583        H589   1.082       .  S
N584        C585   1.356       .  A
N584        H592   1.045       .  S
C585        C586   1.395       .  A
C586        H590   1.082       .  S
C593        C598   1.387       .  A
C593        C594   1.400       .  A
C593        N599   1.339       .  A
C594        C595   1.397       .  A
C594        H605   1.083       .  S
C595        C604   1.373       .  A
C595        C596   1.385       .  A
C596        C597   1.398       .  A
C596        N602   1.339       .  A
C597        C598   1.398       .  A
C597        H606   1.083       .  S
C598        C601   1.372       .  A
N599        C600   1.353       .  A
N599        H609   1.045       .  S
C600        C601   1.392       .  A
C601        H607   1.083       .  S
N602        C603   1.353       .  A
N602        H610   1.045       .  S
C603        C604   1.391       .  A
C604        H608   1.082       .  S
C611        C616   1.386       .  A
C611        C612   1.403       .  A
C611        N617   1.344       .  A
C612        C613   1.403       .  A
C612        H623   1.082       .  S
C613        C622   1.378       .  A
C613        C614   1.387       .  A
C614        C615   1.392       .  A
C614        N620   1.334       .  A
C615        C616   1.391       .  A
C615        H624   1.083       .  S
C616        C619   1.362       .  A
N617        C618   1.355       .  A
N617        H627   1.045       .  S
C618        C619   1.388       .  A
C619        H625   1.083       .  S
N620        C621   1.349       .  A
N620        H628   1.045       .  S
C621        C622   1.394       .  A
C622        H626   1.082       .  S
C629        C634   1.383       .  A
C629        C630   1.410       .  A
C629        N635   1.351       .  A
C630        C631   1.410       .  A
C630        H641   1.082       .  S
C631        C640   1.385       .  A
C631        C632   1.383       .  A
C632        C633   1.408       .  A
C632        N638   1.349       .  A
C633        C634   1.408       .  A
C633        H642   1.082       .  S
C634        C637   1.382       .  A
N635        C636   1.359       .  A
N635        H645   1.045       .  S
C636        C637   1.399       .  A
C637        H643   1.082       .  S
N638        C639   1.358       .  A
N638        H646   1.045       .  S
C639        C640   1.401       .  A
C640        H644   1.082       .  S
C647        C652   1.384       .  A
C647        C648   1.408       .  A
C647        N653   1.350       .  A
C648        C649   1.409       .  A
C648        H659   1.082       .  S
C649        C658   1.382       .  A
C649        C650   1.384       .  A
C650        C651   1.408       .  A
C650        N656   1.350       .  A
C651        C652   1.408       .  A
C651        H660   1.082       .  S
C652        C655   1.382       .  A
N653        C654   1.358       .  A
N653        H663   1.045       .  S
C654        C655   1.398       .  A
C655        H661   1.082       .  S
N656        C657   1.358       .  A
N656        H664   1.045       .  S
C657        C658   1.400       .  A
C658        H662   1.082       .  S
C665        C670   1.386       .  A
C665        C666   1.394       .  A
C665        N671   1.334       .  A
C666        C667   1.392       .  A
C666        H677   1.083       .  S
C667        C676   1.366       .  A
C667        C668   1.386       .  A
C668        C669   1.402       .  A
C668        N674   1.342       .  A
C669        C670   1.401       .  A
C669        H678   1.082       .  S
C670        C673   1.377       .  A
N671        C672   1.352       .  A
N671        H681   1.045       .  S
C672        C673   1.394       .  A
C673        H679   1.082       .  S
N674        C675   1.353       .  A
N674        H682   1.045       .  S
C675        C676   1.388       .  A
C676        H680   1.083       .  S
C683        C688   1.385       .  A
C683        C684   1.400       .  A
C683        N689   1.340       .  A
C684        C685   1.399       .  A
C684        H695   1.083       .  S
C685        C694   1.373       .  A
C685        C686   1.384       .  A
C686        C687   1.406       .  A
C686        N692   1.346       .  A
C687        C688   1.405       .  A
C687        H696   1.082       .  S
C688        C691   1.382       .  A
N689        C690   1.354       .  A
N689        H699   1.045       .  S
C690        C691   1.397       .  A
C691        H697   1.082       .  S
N692        C693   1.357       .  A
N692        H700   1.045       .  S
C693        C694   1.393       .  A
C694        H698   1.082       .  S
C701        C706   1.384       .  A
C701        C702   1.408       .  A
C701        N707   1.351       .  A
C702        C703   1.408       .  A
C702        H713   1.082       .  S
C703        C712   1.382       .  A
C703        C704   1.384       .  A
C704        C705   1.406       .  A
C704        N710   1.349       .  A
C705        C706   1.407       .  A
C705        H714   1.082       .  S
C706        C709   1.378       .  A
N707        C708   1.358       .  A
N707        H717   1.044       .  S
C708        C709   1.399       .  A
C709        H715   1.083       .  S
N710        C711   1.357       .  A
N710        H718   1.045       .  S
C711        C712   1.397       .  A
C712        H716   1.082       .  S
C719        C724   1.384       .  A
C719        C720   1.404       .  A
C719        N725   1.346       .  A
C720        C721   1.404       .  A
C720        H731   1.082       .  S
C721        C730   1.378       .  A
C721        C722   1.383       .  A
C722        C723   1.411       .  A
C722        N728   1.351       .  A
C723        C724   1.411       .  A
C723        H732   1.082       .  S
C724        C727   1.387       .  A
N725        C726   1.356       .  A
N725        H735   1.045       .  S
C726        C727   1.401       .  A
C727        H733   1.082       .  S
N728        C729   1.360       .  A
N728        H736   1.044       .  S
C729        C730   1.396       .  A
C730        H734   1.083       .  S
C737        C742   1.385       .  A
C737        C738   1.399       .  A
C737        N743   1.342       .  A
C738        C739   1.399       .  A
C738        H749   1.083       .  S
C739        C748   1.370       .  A
C739        C740   1.385       .  A
C740        C741   1.402       .  A
C740        N746   1.345       .  A
C741        C742   1.402       .  A
C741        H750   1.082       .  S
C742        C745   1.375       .  A
N743        C744   1.354       .  A
N743        H753   1.045       .  S
C744        C745   1.394       .  A
C745        H751   1.082       .  S
N746        C747   1.354       .  A
N746        H754   1.045       .  S
C747        C748   1.394       .  A
C748        H752   1.083       .  S
C755        C760   1.384       .  A
C755        C756   1.407       .  A
C755        N761   1.348       .  A
C756        C757   1.407       .  A
C756        H767   1.082       .  S
C757        C766   1.381       .  A
C757        C758   1.384       .  A
C758        C759   1.404       .  A
C758        N764   1.346       .  A
C759        C760   1.404       .  A
C759        H768   1.082       .  S
C760        C763   1.377       .  A
N761        C762   1.357       .  A
N761        H771   1.045       .  S
C762        C763   1.395       .  A
C763        H769   1.082       .  S
N764        C765   1.356       .  A
N764        H772   1.045       .  S
C765        C766   1.398       .  A
C766        H770   1.082       .  S
C773        C778   1.385       .  A
C773        C774   1.405       .  A
C773        N779   1.342       .  A
C774        C775   1.402       .  A
C774        H785   1.082       .  S
C775        C784   1.382       .  A
C775        C776   1.385       .  A
C776        C777   1.399       .  A
C776        N782   1.337       .  A
C777        C778   1.397       .  A
C777        H786   1.083       .  S
C778        C781   1.374       .  A
N779        C780   1.356       .  A
N779        H789   1.045       .  S
C780        C781   1.393       .  A
C781        H787   1.083       .  S
N782        C783   1.354       .  A
N782        H790   1.045       .  S
C783        C784   1.395       .  A
C784        H788   1.082       .  S
C791        C796   1.387       .  A
C791        C792   1.398       .  A
C791        N797   1.339       .  A
C792        C793   1.396       .  A
C792        H803   1.083       .  S
C793        C802   1.371       .  A
C793        C794   1.386       .  A
C794        C795   1.400       .  A
C794        N800   1.341       .  A
C795        C796   1.400       .  A
C795        H804   1.083       .  S
C796        C799   1.374       .  A
N797        C798   1.352       .  A
N797        H807   1.045       .  S
C798        C799   1.393       .  A
C799        H805   1.083       .  S
N800        C801   1.354       .  A
N800        H808   1.045       .  S
C801        C802   1.390       .  A
C802        H806   1.082       .  S
C809        C814   1.385       .  A
C809        C810   1.402       .  A
C809        N815   1.342       .  A
C810        C811   1.401       .  A
C810        H821   1.082       .  S
C811        C820   1.377       .  A
C811        C812   1.385       .  A
C812        C813   1.403       .  A
C812        N818   1.341       .  A
C813        C814   1.401       .  A
C813        H822   1.083       .  S
C814        C817   1.377       .  A
N815        C816   1.355       .  A
N815        H825   1.045       .  S
C816        C817   1.395       .  A
C817        H823   1.083       .  S
N818        C819   1.355       .  A
N818        H826   1.045       .  S
C819        C820   1.392       .  A
C820        H824   1.082       .  S
C827        C832   1.386       .  A
C827        C828   1.398       .  A
C827        N833   1.340       .  A
C828        C829   1.398       .  A
C828        H839   1.083       .  S
C829        C838   1.371       .  A
C829        C830   1.386       .  A
C830        C831   1.399       .  A
C830        N836   1.340       .  A
C831        C832   1.398       .  A
C831        H840   1.083       .  S
C832        C835   1.371       .  A
N833        C834   1.353       .  A
N833        H843   1.045       .  S
C834        C835   1.392       .  A
C835        H841   1.083       .  S
N836        C837   1.353       .  A
N836        H844   1.045       .  S
C837        C838   1.392       .  A
C838        H842   1.083       .  S
C845        C850   1.386       .  A
C845        C846   1.394       .  A
C845        N851   1.334       .  A
C846        C847   1.392       .  A
C846        H857   1.083       .  S
C847        C856   1.366       .  A
C847        C848   1.386       .  A
C848        C849   1.404       .  A
C848        N854   1.343       .  A
C849        C850   1.403       .  A
C849        H858   1.082       .  S
C850        C853   1.379       .  A
N851        C852   1.350       .  A
N851        H861   1.045       .  S
C852        C853   1.394       .  A
C853        H859   1.082       .  S
N854        C855   1.355       .  A
N854        H862   1.045       .  S
C855        C856   1.389       .  A
C856        H860   1.083       .  S
C863        C868   1.386       .  A
C863        C864   1.398       .  A
C863        N869   1.338       .  A
C864        C865   1.396       .  A
C864        H875   1.083       .  S
C865        C874   1.371       .  A
C865        C866   1.385       .  A
C866        C867   1.403       .  A
C866        N872   1.342       .  A
C867        C868   1.402       .  A
C867        H876   1.082       .  S
C868        C871   1.377       .  A
N869        C870   1.353       .  A
N869        H879   1.045       .  S
C870        C871   1.395       .  A
C871        H877   1.082       .  S
N872        C873   1.355       .  A
N872        H880   1.045       .  S
C873        C874   1.391       .  A
C874        H878   1.083       .  S
C881        C886   1.385       .  A
C881        C882   1.400       .  A
C881        N887   1.342       .  A
C882        C883   1.400       .  A
C882        H893   1.083       .  S
C883        C892   1.373       .  A
C883        C884   1.385       .  A
C884        C885   1.405       .  A
C884        N890   1.346       .  A
C885        C886   1.405       .  A
C885        H894   1.082       .  S
C886        C889   1.379       .  A
N887        C888   1.354       .  A
N887        H897   1.045       .  S
C888        C889   1.396       .  A
C889        H895   1.082       .  S
N890        C891   1.355       .  A
N890        H898   1.045       .  S
C891        C892   1.393       .  A
C892        H896   1.083       .  S
C899        C904   1.383       .  A
C899        C900   1.411       .  A
C899        N905   1.351       .  A
C900        C901   1.411       .  A
C900        H911   1.082       .  S
C901        C910   1.387       .  A
C901        C902   1.383       .  A
C902        C903   1.409       .  A
C902        N908   1.350       .  A
C903        C904   1.409       .  A
C903        H912   1.082       .  S
C904        C907   1.384       .  A
N905        C906   1.360       .  A
N905        H915   1.045       .  S
C906        C907   1.400       .  A
C907        H913   1.082       .  S
N908        C909   1.358       .  A
N908        H916   1.045       .  S
C909        C910   1.400       .  A
C910        H914   1.082       .  S
C917        C922   1.386       .  A
C917        C918   1.402       .  A
C917        N923   1.342       .  A
C918        C919   1.401       .  A
C918        H929   1.082       .  S
C919        C928   1.375       .  A
C919        C920   1.385       .  A
C920        C921   1.398       .  A
C920        N926   1.339       .  A
C921        C922   1.397       .  A
C921        H930   1.083       .  S
C922        C925   1.370       .  A
N923        C924   1.355       .  A
N923        H933   1.045       .  S
C924        C925   1.392       .  A
C925        H931   1.083       .  S
N926        C927   1.353       .  A
N926        H934   1.045       .  S
C927        C928   1.394       .  A
C928        H932   1.082       .  S
C935        C940   1.384       .  A
C935        C936   1.405       .  A
C935        N941   1.346       .  A
C936        C937   1.405       .  A
C936        H947   1.082       .  S
C937        C946   1.380       .  A
C937        C938   1.384       .  A
C938        C939   1.409       .  A
C938        N944   1.349       .  A
C939        C940   1.408       .  A
C939        H948   1.082       .  S
C940        C943   1.384       .  A
N941        C942   1.357       .  A
N941        H951   1.045       .  S
C942        C943   1.399       .  A
C943        H949   1.082       .  S
N944        C945   1.358       .  A
N944        H952   1.045       .  S
C945        C946   1.396       .  A
C946        H950   1.082       .  S
C953        C958   1.385       .  A
C953        C954   1.403       .  A
C953        N959   1.343       .  A
C954        C955   1.402       .  A
C954        H965   1.082       .  S
C955        C964   1.379       .  A
C955        C956   1.385       .  A
C956        C957   1.398       .  A
C956        N962   1.337       .  A
C957        C958   1.397       .  A
C957        H966   1.083       .  S
C958        C961   1.372       .  A
N959        C960   1.355       .  A
N959        H969   1.045       .  S
C960        C961   1.393       .  A
C961        H967   1.083       .  S
N962        C963   1.353       .  A
N962        H970   1.045       .  S
C963        C964   1.394       .  A
C964        H968   1.082       .  S
C971        C976   1.384       .  A
C971        C972   1.406       .  A
C971        N977   1.346       .  A
C972        C973   1.406       .  A
C972        H983   1.082       .  S
C973        C982   1.381       .  A
C973        C974   1.383       .  A
C974        C975   1.410       .  A
C974        N980   1.350       .  A
C975        C976   1.410       .  A
C975        H984   1.082       .  S
C976        C979   1.387       .  A
N977        C978   1.357       .  A
N977        H987   1.045       .  S
C978        C979   1.400       .  A
C979        H985   1.082       .  S
N980        C981   1.360       .  A
N980        H988   1.045       .  S
C981        C982   1.397       .  A
C982        H986   1.083       .  S
C989        C994   1.384       .  A
C989        C990   1.405       .  A
C989        N995   1.344       .  A
C990        C991   1.404       .  A
C990       H1001   1.082       .  S
C991       C1000   1.381       .  A
C991        C992   1.384       .  A
C992        C993   1.408       .  A
C992        N998   1.348       .  A
C993        C994   1.407       .  A
C993       H1002   1.082       .  S
C994        C997   1.384       .  A
N995        C996   1.357       .  A
N995       H1005   1.045       .  S
C996        C997   1.398       .  A
C997       H1003   1.082       .  S
N998        C999   1.358       .  A
N998       H1006   1.045       .  S
C999       C1000   1.397       .  A
C1000      H1004   1.082       .  S
C1007      C1012   1.384       .  A
C1007      C1008   1.403       .  A
C1007      N1013   1.345       .  A
C1008      C1009   1.403       .  A
C1008      H1019   1.082       .  S
C1009      C1018   1.376       .  A
C1009      C1010   1.384       .  A
C1010      C1011   1.410       .  A
C1010      N1016   1.351       .  A
C1011      C1012   1.410       .  A
C1011      H1020   1.082       .  S
C1012      C1015   1.385       .  A
N1013      C1014   1.355       .  A
N1013      H1023   1.045       .  S
C1014      C1015   1.399       .  A
C1015      H1021   1.082       .  S
N1016      C1017   1.359       .  A
N1016      H1024   1.044       .  S
C1017      C1018   1.396       .  A
C1018      H1022   1.083       .  S
C1025      C1030   1.385       .  A
C1025      C1026   1.400       .  A
C1025      N1031   1.338       .  A
C1026      C1027   1.398       .  A
C1026      H1037   1.082       .  S
C1027      C1036   1.376       .  A
C1027      C1028   1.385       .  A
C1028      C1029   1.404       .  A
C1028      N1034   1.341       .  A
C1029      C1030   1.402       .  A
C1029      H1038   1.083       .  S
C1030      C1033   1.380       .  A
N1031      C1032   1.353       .  A
N1031      H1041   1.045       .  S
C1032      C1033   1.395       .  A
C1033      H1039   1.082       .  S
N1034      C1035   1.355       .  A
N1034      H1042   1.045       .  S
C1035      C1036   1.391       .  A
C1036      H1040   1.082       .  S
C1043      C1048   1.383       .  A
C1043      C1044   1.412       .  A
C1043      N1049   1.351       .  A
C1044      C1045   1.411       .  A
C1044      H1055   1.082       .  S
C1045      C1054   1.389       .  A
C1045      C1046   1.384       .  A
C1046      C1047   1.406       .  A
C1046      N1052   1.346       .  A
C1047      C1048   1.405       .  A
C1047      H1056   1.082       .  S
C1048      C1051   1.381       .  A
N1049      C1050   1.360       .  A
N1049      H1059   1.044       .  S
C1050      C1051   1.398       .  A
C1051      H1057   1.083       .  S
N1052      C1053   1.356       .  A
N1052      H1060   1.045       .  S
C1053      C1054   1.401       .  A
C1054      H1058   1.082       .  S
C1061      C1066   1.384       .  A
C1061      C1062   1.409       .  A
C1061      N1067   1.349       .  A
C1062      C1063   1.408       .  A
C1062      H1073   1.082       .  S
C1063      C1072   1.384       .  A
C1063      C1064   1.384       .  A
C1064      C1065   1.404       .  A
C1064      N1070   1.345       .  A
C1065      C1066   1.403       .  A
C1065      H1074   1.082       .  S
C1066      C1069   1.378       .  A
N1067      C1068   1.359       .  A
N1067      H1077   1.045       .  S
C1068      C1069   1.396       .  A
C1069      H1075   1.083       .  S
N1070      C1071   1.356       .  A
N1070      H1078   1.045       .  S
C1071      C1072   1.399       .  A
C1072      H1076   1.082       .  S
C1079      C1084   1.385       .  A
C1079      C1080   1.400       .  A
C1079      N1085   1.341       .  A
C1080      C1081   1.400       .  A
C1080      H1091   1.082       .  S
C1081      C1090   1.374       .  A
C1081      C1082   1.386       .  A
C1082      C1083   1.397       .  A
C1082      N1088   1.337       .  A
C1083      C1084   1.395       .  A
C1083      H1092   1.083       .  S
C1084      C1087   1.368       .  A
N1085      C1086   1.354       .  A
N1085      H1095   1.045       .  S
C1086      C1087   1.391       .  A
C1087      H1093   1.083       .  S
N1088      C1089   1.352       .  A
N1088      H1096   1.045       .  S
C1089      C1090   1.394       .  A
C1090      H1094   1.083       .  S
C1097      C1102   1.385       .  A
C1097      C1098   1.404       .  A
C1097      N1103   1.342       .  A
C1098      C1099   1.403       .  A
C1098      H1109   1.082       .  S
C1099      C1108   1.382       .  A
C1099      C1100   1.385       .  A
C1100      C1101   1.397       .  A
C1100      N1106   1.335       .  A
C1101      C1102   1.394       .  A
C1101      H1110   1.083       .  S
C1102      C1105   1.371       .  A
N1103      C1104   1.355       .  A
N1103      H1113   1.045       .  S
C1104      C1105   1.389       .  A
C1105      H1111   1.083       .  S
N1106      C1107   1.353       .  A
N1106      H1114   1.045       .  S
C1107      C1108   1.396       .  A
C1108      H1112   1.082       .  S
C1115      C1120   1.384       .  A
C1115      C1116   1.408       .  A
C1115      N1121   1.347       .  A
C1116      C1117   1.407       .  A
C1116      H1127   1.082       .  S
C1117      C1126   1.383       .  A
C1117      C1118   1.384       .  A
C1118      C1119   1.405       .  A
C1118      N1124   1.345       .  A
C1119      C1120   1.404       .  A
C1119      H1128   1.082       .  S
C1120      C1123   1.381       .  A
N1121      C1122   1.358       .  A
N1121      H1131   1.045       .  S
C1122      C1123   1.395       .  A
C1123      H1129   1.082       .  S
N1124      C1125   1.356       .  A
N1124      H1132   1.045       .  S
C1125      C1126   1.398       .  A
C1126      H1130   1.083       .  S
C1133      C1138   1.386       .  A
C1133      C1134   1.397       .  A
C1133      N1139   1.339       .  A
C1134      C1135   1.396       .  A
C1134      H1145   1.083       .  S
C1135      C1144   1.367       .  A
C1135      C1136   1.385       .  A
C1136      C1137   1.406       .  A
C1136      N1142   1.348       .  A
C1137      C1138   1.406       .  A
C1137      H1146   1.082       .  S
C1138      C1141   1.380       .  A
N1139      C1140   1.352       .  A
N1139      H1149   1.045       .  S
C1140      C1141   1.396       .  A
C1141      H1147   1.082       .  S
N1142      C1143   1.356       .  A
N1142      H1150   1.044       .  S
C1143      C1144   1.392       .  A
C1144      H1148   1.083       .  S
C1151      C1156   1.386       .  A
C1151      C1152   1.397       .  A
C1151      N1157   1.337       .  A
C1152      C1153   1.395       .  A
C1152      H1163   1.083       .  S
C1153      C1162   1.368       .  A
C1153      C1154   1.385       .  A
C1154      C1155   1.400       .  A
C1154      N1160   1.341       .  A
C1155      C1156   1.400       .  A
C1155      H1164   1.082       .  S
C1156      C1159   1.374       .  A
N1157      C1158   1.352       .  A
N1157      H1167   1.045       .  S
C1158      C1159   1.394       .  A
C1159      H1165   1.083       .  S
N1160      C1161   1.353       .  A
N1160      H1168   1.045       .  S
C1161      C1162   1.392       .  A
C1162      H1166   1.083       .  S
C1169      C1174   1.386       .  A
C1169      C1170   1.397       .  A
C1169      N1175   1.337       .  A
C1170      C1171   1.396       .  A
C1170      H1181   1.083       .  S
C1171      C1180   1.370       .  A
C1171      C1172   1.386       .  A
C1172      C1173   1.399       .  A
C1172      N1178   1.340       .  A
C1173      C1174   1.398       .  A
C1173      H1182   1.082       .  S
C1174      C1177   1.373       .  A
N1175      C1176   1.352       .  A
N1175      H1185   1.045       .  S
C1176      C1177   1.392       .  A
C1177      H1183   1.082       .  S
N1178      C1179   1.352       .  A
N1178      H1186   1.045       .  S
C1179      C1180   1.390       .  A
C1180      H1184   1.083       .  S
C1187      C1192   1.385       .  A
C1187      C1188   1.403       .  A
C1187      N1193   1.344       .  A
C1188      C1189   1.403       .  A
C1188      H1199   1.082       .  S
C1189      C1198   1.378       .  A
C1189      C1190   1.385       .  A
C1190      C1191   1.403       .  A
C1190      N1196   1.343       .  A
C1191      C1192   1.402       .  A
C1191      H1200   1.082       .  S
C1192      C1195   1.377       .  A
N1193      C1194   1.355       .  A
N1193      H1203   1.045       .  S
C1194      C1195   1.394       .  A
C1195      H1201   1.082       .  S
N1196      C1197   1.355       .  A
N1196      H1204   1.045       .  S
C1197      C1198   1.395       .  A
C1198      H1202   1.083       .  S
C1205      C1210   1.386       .  A
C1205      C1206   1.400       .  A
C1205      N1211   1.341       .  A
C1206      C1207   1.399       .  A
C1206      H1217   1.082       .  S
C1207      C1216   1.373       .  A
C1207      C1208   1.386       .  A
C1208      C1209   1.397       .  A
C1208      N1214   1.339       .  A
C1209      C1210   1.397       .  A
C1209      H1218   1.083       .  S
C1210      C1213   1.371       .  A
N1211      C1212   1.354       .  A
N1211      H1221   1.045       .  S
C1212      C1213   1.391       .  A
C1213      H1219   1.083       .  S
N1214      C1215   1.352       .  A
N1214      H1222   1.045       .  S
C1215      C1216   1.392       .  A
C1216      H1220   1.083       .  S
C1223      C1228   1.385       .  A
C1223      C1224   1.406       .  A
C1223      N1229   1.345       .  A
C1224      C1225   1.405       .  A
C1224      H1235   1.082       .  S
C1225      C1234   1.382       .  A
C1225      C1226   1.385       .  A
C1226      C1227   1.402       .  A
C1226      N1232   1.341       .  A
C1227      C1228   1.401       .  A
C1227      H1236   1.082       .  S
C1228      C1231   1.377       .  A
N1229      C1230   1.357       .  A
N1229      H1239   1.045       .  S
C1230      C1231   1.394       .  A
C1231      H1237   1.083       .  S
N1232      C1233   1.354       .  A
N1232      H1240   1.045       .  S
C1233      C1234   1.395       .  A
C1234      H1238   1.082       .  S
