geometry optimzed in LAMMPS
_audit_creation_date              2020-12-01 
_audit_creation_method            'lammps2cif' 
_symmetry_space_group_name_H-M    'P1' 
_symmetry_Int_Tables_number       1 
_symmetry_cell_setting            triclinic 
loop_ 
_symmetry_equiv_pos_as_xyz 
  x,y,z 
_cell_length_a                    41.71399131 
_cell_length_b                    41.51949103996709 
_cell_length_c                    41.77894385658076 
_cell_angle_alpha                 89.9755095282019 
_cell_angle_beta                  89.84525533157245 
_cell_angle_gamma                 90.15906889973118 
loop_ 
_atom_site_label 
_atom_site_type_symbol 
_atom_site_fract_x 
_atom_site_fract_y 
_atom_site_fract_z 
_atom_site_charge 
O1          O  0.17151810  0.59101488  0.47376555    -0.85900
O2          O  0.21185785  0.63213103  0.50455129    -0.82900
C3          C  0.22525690  0.64866795  0.52580875     0.97600
O4          O  0.21716104  0.64556140  0.55525748    -0.83000
O5          O  0.15163692  0.66340391  0.56381263    -0.85600
C6          C  0.12174280  0.66255417  0.55831089     1.02100
O7          O  0.10880912  0.63666225  0.54870653    -0.78400
O8          O  0.13102660  0.62112287  0.48822093    -0.78600
C9          C  0.14776819  0.60835495  0.46666286     1.02000
O10         O  0.18431077  0.54362652  0.52108172    -0.85900
O11         O  0.23055134  0.58235895  0.54747329    -0.83000
C12         C  0.22616642  0.57509820  0.57647214     0.97600
O13         O  0.20225810  0.58640779  0.59118710    -0.83000
O14         O  0.13921367  0.60575502  0.60102287    -0.85600
C15         C  0.12165326  0.58136256  0.59479411     1.02100
O16         O  0.11956804  0.57084529  0.56674743    -0.78400
O17         O  0.13483448  0.55395798  0.50663503    -0.78600
C18         C  0.15773823  0.53431143  0.51039325     1.02000
Cr19       Cr  0.19728395  0.58857846  0.51377152     1.93700
Cr20       Cr  0.17698789  0.62395511  0.57512047     1.93200
Cr21       Cr  0.12658604  0.59649300  0.52847261     1.39100
O22         O  0.16686201  0.60344469  0.53922595    -1.23600
O23         O  0.14068634  0.55600648  0.26536276    -0.85900
O24         O  0.13271314  0.52064707  0.20991324    -0.82900
C25         C  0.10295909  0.52564913  0.20993785     0.97600
O26         O  0.09242053  0.55180174  0.19809969    -0.83000
O27         O  0.09184573  0.61879101  0.18355361    -0.85600
C28         C  0.08619052  0.63393459  0.20943047     1.02100
O29         O  0.10464068  0.63020474  0.23300971    -0.78400
O30         O  0.15298472  0.60721863  0.27084173    -0.78600
C31         C  0.14257785  0.58104644  0.28239321     1.02000
O32         O  0.20288128  0.57524736  0.24448709    -0.85900
O33         O  0.19111671  0.54607718  0.18590036    -0.83000
C34         C  0.17777602  0.53749208  0.16016784     0.97600
O35         O  0.14849687  0.54458169  0.15527367    -0.83000
O36         O  0.15250797  0.61091132  0.14895054    -0.85600
C37         C  0.16049037  0.63854512  0.15924021     1.02100
O38         O  0.14991530  0.64823737  0.18577553    -0.78400
O39         O  0.19859306  0.62218091  0.22145907    -0.78600
C40         C  0.21524601  0.60173216  0.23618527     1.02000
Cr41       Cr  0.16543627  0.55201211  0.22513844     1.93700
Cr42       Cr  0.12250158  0.58170362  0.17373009     1.93200
Cr43       Cr  0.15125499  0.62411046  0.22648846     1.39100
O44         O  0.14625418  0.58607684  0.20854281    -1.23600
O45         O  0.28256096  0.14492356  0.59035983    -0.85900
O46         O  0.24706855  0.10639320  0.55250064    -0.82900
C47         C  0.22432428  0.09165447  0.53965364     0.97600
O48         O  0.19612710  0.09473620  0.55104501    -0.83000
O49         O  0.19666235  0.08104124  0.61984299    -0.85600
C50         C  0.20210400  0.08640040  0.64930957     1.02100
O51         O  0.20540438  0.11516158  0.65870990    -0.78400
O52         O  0.26580558  0.12428139  0.63613126    -0.78600
C53         C  0.28786901  0.13046755  0.61657918     1.02000
O54         O  0.24064938  0.19811230  0.57546461    -0.85900
O55         O  0.20545775  0.15977459  0.53527690    -0.83000
C56         C  0.17579450  0.16395735  0.54078964     0.97600
O57         O  0.16266277  0.15244840  0.56555917    -0.83000
O58         O  0.15758208  0.13892779  0.63007555    -0.85600
C59         C  0.16311281  0.16618670  0.64325761     1.02100
O60         O  0.19006161  0.17946227  0.63961878    -0.78400
O61         O  0.25439873  0.19022662  0.62506550    -0.78600
C62         C  0.25488515  0.20749922  0.60021372     1.02000
Cr63       Cr  0.24190755  0.15133554  0.56562642     1.93700
Cr64       Cr  0.18099535  0.11791025  0.59211079     1.93200
Cr65       Cr  0.22778725  0.15164138  0.63698176     1.39100
O66         O  0.21691771  0.14026560  0.59794593    -1.23600
O67         O  0.48678022  0.17969796  0.62793197    -0.85900
O68         O  0.54127950  0.21795576  0.63152473    -0.82900
C69         C  0.54232626  0.21280290  0.66107172     0.97600
O70         O  0.55522300  0.18698688  0.67104188    -0.83000
O71         O  0.57142002  0.12061001  0.67101278    -0.85600
C72         C  0.54608644  0.10438873  0.67658685     1.02100
O73         O  0.52216103  0.10742143  0.65854938    -0.78400
O74         O  0.48278593  0.12959114  0.61197665    -0.78600
C75         C  0.47076117  0.15403064  0.62536888     1.02000
O76         O  0.50438373  0.16249160  0.56373364    -0.85900
O77         O  0.56166393  0.19415101  0.57236557    -0.83000
C78         C  0.58805256  0.20288122  0.58419931     0.97600
O79         O  0.59557724  0.19515372  0.61277452    -0.83000
O80         O  0.60488160  0.12926112  0.61025548    -0.85600
C81         C  0.59570807  0.10108518  0.60276016     1.02100
O82         O  0.56881064  0.09085139  0.61203753    -0.78400
O83         O  0.53168394  0.11777771  0.56511722    -0.78600
C84         C  0.51494616  0.13771409  0.54980084     1.02000
Cr85       Cr  0.52483926  0.18614056  0.60021615     1.93700
Cr86       Cr  0.57956416  0.15792123  0.64018907     1.93200
Cr87       Cr  0.52756066  0.11416278  0.61222434     1.39100
O88         O  0.54425328  0.15255788  0.61751985    -1.23600
O89         O  0.60839015  0.45951017  0.16307113    -0.85900
O90         O  0.64963140  0.49418725  0.20215498    -0.82900
C91         C  0.66231487  0.51710446  0.21716185     0.97600
O92         O  0.65596067  0.54596261  0.20912814    -0.83000
O93         O  0.67230441  0.55166107  0.14350699    -0.85600
C94         C  0.67082772  0.54736855  0.11355338     1.02100
O95         O  0.64440385  0.53953426  0.10058449    -0.78400
O96         O  0.63175032  0.47805177  0.11984366    -0.78600
C97         C  0.62144852  0.45490240  0.13613493     1.02000
O98         O  0.55789636  0.50071772  0.18089746    -0.85900
O99         O  0.59588717  0.53294915  0.22352085    -0.83000
C100        C  0.58738198  0.56191921  0.21910983     0.97600
O101        O  0.59654966  0.57706155  0.19450725    -0.83000
O102        O  0.61507188  0.58862826  0.13143602    -0.85600
C103        C  0.58937170  0.58282746  0.11612627     1.02100
O104        O  0.57793563  0.55490851  0.11609982    -0.78400
O105        O  0.56470248  0.49270902  0.12933412    -0.78600
C106        C  0.54726867  0.49154317  0.15424424     1.02000
Cr107      Cr  0.60419791  0.49889100  0.19025529     1.93700
Cr108      Cr  0.63379548  0.56315568  0.16895354     1.93200
Cr109      Cr  0.60545296  0.51714422  0.11937099     1.39100
O110        O  0.61445795  0.52633933  0.15948873    -1.23600
O111        O  0.59275823  0.27389797  0.13647748    -0.85900
O112        O  0.54843809  0.23370382  0.11320621    -0.82900
C113        C  0.53429748  0.20878434  0.10396681     0.97600
O114        O  0.54528395  0.18112653  0.11113415    -0.83000
O115        O  0.61071821  0.17493923  0.08952281    -0.85600
C116        C  0.64068590  0.18028145  0.08834844     1.02100
O117        O  0.65495316  0.18957364  0.11328503    -0.78400
O118        O  0.63359552  0.25148340  0.11162597    -0.78600
C119        C  0.61543508  0.27514453  0.11609217     1.02000
O120        O  0.58633835  0.24313359  0.19889448    -0.85900
O121        O  0.53843188  0.20442794  0.17525694    -0.83000
C122        C  0.54255652  0.17545116  0.18389408     0.97600
O123        O  0.56532168  0.15898586  0.17250042    -0.83000
O124        O  0.62775316  0.14869794  0.15268254    -0.85600
C125        C  0.64448309  0.15987829  0.17575010     1.02100
O126        O  0.64542492  0.18970155  0.18097634    -0.78400
O127        O  0.63346373  0.25465741  0.17951271    -0.78600
C128        C  0.61283173  0.25736129  0.20149991     1.02000
Cr129      Cr  0.56859602  0.23656912  0.15521803     1.93700
Cr130      Cr  0.58812219  0.16881265  0.13193521     1.93200
Cr131      Cr  0.63876360  0.22022651  0.14630116     1.39100
O132        O  0.59815445  0.20840496  0.14444838    -1.23600
O133        O  0.68912440  0.87387079  0.52157188    -0.85900
O134        O  0.73057965  0.87203379  0.47056374    -0.82900
C135        C  0.72703979  0.84210437  0.46773071     0.97600
O136        O  0.70189612  0.83135203  0.45423996    -0.83000
O137        O  0.63678823  0.82958217  0.43315346    -0.85600
C138        C  0.61863103  0.82316478  0.45677446     1.02100
O139        O  0.61887956  0.84127620  0.48090831    -0.78400
O140        O  0.63804721  0.88641746  0.52352422    -0.78600
C141        C  0.66275862  0.87442769  0.53626736     1.02000
O142        O  0.67134050  0.93827597  0.50532886    -0.85900
O143        O  0.70630102  0.93112332  0.44908312    -0.83000
C144        C  0.71687596  0.91916297  0.42341084     0.97600
O145        O  0.71065811  0.89016820  0.41570128    -0.83000
O146        O  0.64642772  0.89112681  0.40165783    -0.85600
C147        C  0.61735892  0.89725926  0.40800065     1.02100
O148        O  0.60547353  0.89001993  0.43489093    -0.78400
O149        O  0.62779286  0.93598457  0.47677645    -0.78600
C150        C  0.64567270  0.95118104  0.49587389     1.02000
Cr151      Cr  0.69683161  0.90251913  0.48501628     1.93700
Cr152      Cr  0.67353312  0.86176709  0.42867009     1.93200
Cr153      Cr  0.62554592  0.88819620  0.47786098     1.39100
O154        O  0.66503504  0.88427109  0.46358340    -1.23600
O155        O  0.65186319  0.91250129  0.72255324    -0.85900
O156        O  0.61035462  0.94644878  0.76006588    -0.82900
C157        C  0.59735268  0.95944929  0.78387950     0.97600
O158        O  0.60422358  0.94964141  0.81195543    -0.83000
O159        O  0.59250858  0.88135959  0.81319310    -0.85600
C160        C  0.59750822  0.85214632  0.80575436     1.02100
O161        O  0.62572664  0.84297182  0.79953312    -0.78400
O162        O  0.63166670  0.86676483  0.73968471    -0.78600
C163        C  0.63753071  0.88615419  0.71748573     1.02000
O164        O  0.70364320  0.93076863  0.76377196    -0.85900
O165        O  0.66274695  0.96930416  0.79825783    -0.83000
C166        C  0.67258231  0.96375324  0.82628330     0.97600
O167        O  0.66561665  0.93764534  0.84038477    -0.83000
O168        O  0.65255580  0.87166535  0.84767581    -0.85600
C169        C  0.67893397  0.85831043  0.83966352     1.02100
O170        O  0.69019117  0.86335219  0.81225503    -0.78400
O171        O  0.69850804  0.88010247  0.75011489    -0.78600
C172        C  0.71564337  0.90502510  0.75326595     1.02000
Cr173      Cr  0.65645241  0.93754421  0.76291763     1.93700
Cr174      Cr  0.62972411  0.90975330  0.82588337     1.93200
Cr175      Cr  0.66066406  0.86601653  0.77631516     1.39100
O176        O  0.64884747  0.90454630  0.78837034    -1.23600
O177        O  0.23800801  0.86274885  0.07482440    -0.85900
O178        O  0.28863176  0.86983832  0.03258108    -0.82900
C179        C  0.28839814  0.89978715  0.03656910     0.97600
O180        O  0.30107548  0.91137953  0.06173498    -0.83000
O181        O  0.32245796  0.91389722  0.12692239    -0.85600
C182        C  0.29881831  0.91685602  0.14594717     1.02100
O183        O  0.27640465  0.89654283  0.14515447    -0.78400
O184        O  0.23831334  0.84775890  0.12521525    -0.78600
C185        C  0.22418078  0.86023938  0.10159975     1.02000
O186        O  0.26042663  0.79980995  0.09063656    -0.85900
O187        O  0.31552381  0.81283249  0.05584285    -0.83000
C188        C  0.34009838  0.82708870  0.04518353     0.97600
O189        O  0.34545386  0.85659779  0.05179842    -0.83000
O190        O  0.35993961  0.85657752  0.11594470    -0.85600
C191        C  0.35404985  0.84794441  0.14445220     1.02100
O192        O  0.32688907  0.85238100  0.15689915    -0.78400
O193        O  0.28947080  0.80301087  0.13374374    -0.78600
C194        C  0.27117209  0.78697051  0.11576580     1.02000
Cr195      Cr  0.27715210  0.83771352  0.06591861     1.93700
Cr196      Cr  0.32986662  0.88322802  0.08945230     1.93200
Cr197      Cr  0.28391869  0.85040904  0.13724680     1.39100
O198        O  0.29733511  0.85702607  0.09782290    -1.23600
O199        O  0.03764330  0.82741720  0.11595962    -0.85900
O200        O  0.99827975  0.78848758  0.14901634    -0.82900
C201        C  0.97413474  0.77666512  0.16240043     0.97600
O202        O  0.94652580  0.78900303  0.15756605    -0.83000
O203        O  0.94743195  0.85567736  0.17616681    -0.85600
C204        C  0.95373517  0.88554011  0.17507256     1.02100
O205        O  0.96329641  0.89793481  0.14904352    -0.78400
O206        O  0.02204554  0.87020889  0.14280304    -0.78600
C207        C  0.04357358  0.85107811  0.13426020     1.02000
O208        O  0.99698444  0.82022349  0.06035918    -0.85900
O209        O  0.95872959  0.77716423  0.09267519    -0.83000
C210        C  0.93042187  0.78570493  0.08560863     0.97600
O211        O  0.91839035  0.81044000  0.09809632    -0.83000
O212        O  0.91534838  0.87317802  0.11649776    -0.85600
C213        C  0.92465516  0.88796013  0.09126420     1.02100
O214        O  0.95330318  0.88598935  0.08216184    -0.78400
O215        O  0.01564282  0.86723632  0.07447599    -0.78600
C216        C  0.01321744  0.84494074  0.05394131     1.02000
Cr217      Cr  0.99605885  0.80549370  0.10553188     1.93700
Cr218      Cr  0.93465889  0.83238036  0.13627491     1.93200
Cr219      Cr  0.98734925  0.87754819  0.11253859     1.39100
O220        O  0.97258802  0.83828032  0.11827174    -1.23600
O221        O  0.39726730  0.96345094  0.34584065    -0.85900
O222        O  0.36324751  0.00041633  0.30571124    -0.82900
C223        C  0.35059549  0.02399485  0.29208480     0.97600
O224        O  0.35550982  0.05227199  0.30271667    -0.83000
O225        O  0.33900423  0.05436439  0.37060810    -0.85600
C226        C  0.34262320  0.04861915  0.40033092     1.02100
O227        O  0.37066758  0.04459099  0.41094691    -0.78400
O228        O  0.37635101  0.98240851  0.39057351    -0.78600
C229        C  0.38071896  0.95975588  0.37109431     1.02000
O230        O  0.45409272  0.00177452  0.33231729    -0.85900
O231        O  0.41975190  0.03790252  0.28946058    -0.83000
C232        C  0.42670436  0.06732327  0.29399181     0.97600
O233        O  0.41511054  0.08246759  0.31763320    -0.83000
O234        O  0.39888602  0.09025487  0.38151157    -0.85600
C235        C  0.42519578  0.08327418  0.39534864     1.02100
O236        O  0.43614218  0.05509879  0.39363125    -0.78400
O237        O  0.44306143  0.98989481  0.38188654    -0.78600
C238        C  0.46174932  0.98834783  0.35815154     1.02000
Cr239      Cr  0.40776158  0.00303124  0.32053172     1.93700
Cr240      Cr  0.37801202  0.06707868  0.34375182     1.93200
Cr241      Cr  0.40605472  0.01906351  0.39134486     1.39100
O242        O  0.39718844  0.02967324  0.35159315    -1.23600
O243        O  0.42218175  0.77547695  0.35905975    -0.85900
O244        O  0.46297227  0.73636460  0.39033335    -0.82900
C245        C  0.47749528  0.71216414  0.40064221     0.97600
O246        O  0.46712204  0.68407647  0.39406052    -0.83000
O247        O  0.40125887  0.67974293  0.41404459    -0.85600
C248        C  0.37139399  0.68534038  0.41389306     1.02100
O249        O  0.35795140  0.69411203  0.38819429    -0.78400
O250        O  0.37909892  0.75575387  0.38244136    -0.78600
C251        C  0.39832928  0.77852934  0.37758786     1.02000
O252        O  0.43274913  0.73892464  0.30128131    -0.85900
O253        O  0.47717641  0.70196989  0.33177365    -0.83000
C254        C  0.47229155  0.67293226  0.32373887     0.97600
O255        O  0.44824720  0.65758654  0.33410812    -0.83000
O256        O  0.38524552  0.64818862  0.35373963    -0.85600
C257        C  0.36922131  0.65694878  0.32928079     1.02100
O258        O  0.36962462  0.68589242  0.32063433    -0.78400
O259        O  0.38297820  0.74947384  0.31406216    -0.78600
C260        C  0.40546718  0.74914031  0.29372265     1.02000
Cr261      Cr  0.44654489  0.73610956  0.34646514     1.93700
Cr262      Cr  0.42471384  0.67028753  0.37316322     1.93200
Cr263      Cr  0.37546494  0.72033605  0.35175872     1.39100
O264        O  0.41572971  0.70889114  0.35711337    -1.23600
O265        O  0.53217911  0.65933180  0.91076779    -0.85900
O266        O  0.50112097  0.70002850  0.87000950    -0.82900
C267        C  0.47969785  0.71335444  0.85369338     0.97600
O268        O  0.45099284  0.70295206  0.85476609    -0.83000
O269        O  0.44962619  0.63644640  0.83596183    -0.85600
C270        C  0.45380375  0.60628182  0.83825222     1.02100
O271        O  0.45957441  0.59386450  0.86531402    -0.78400
O272        O  0.51864688  0.61671738  0.88266278    -0.78600
C273        C  0.53969218  0.63482930  0.89442294     1.02000
O274        O  0.48432842  0.67077290  0.95823482    -0.85900
O275        O  0.45511713  0.71521685  0.91912380    -0.83000
C276        C  0.42548117  0.70934036  0.92220614     0.97600
O277        O  0.41313702  0.68491710  0.90921826    -0.83000
O278        O  0.40779301  0.62213478  0.88913589    -0.85600
C279        C  0.41146816  0.60620451  0.91483871     1.02100
O280        O  0.43773599  0.60659778  0.92939882    -0.78400
O281        O  0.49848951  0.62103968  0.94826229    -0.78600
C282        C  0.49465788  0.64398313  0.96777283     1.02000
Cr283      Cr  0.49131319  0.68409780  0.91314123     1.93700
Cr284      Cr  0.43309405  0.66112554  0.87373500     1.93200
Cr285      Cr  0.47776344  0.61255453  0.90568140     1.39100
O286        O  0.46742312  0.65270787  0.89733720    -1.23600
O287        O  0.74025755  0.62430316  0.94299669    -0.85900
O288        O  0.79409345  0.62135787  0.98004865    -0.82900
C289        C  0.79530499  0.59123291  0.97670375     0.97600
O290        O  0.80902264  0.57971768  0.95203847    -0.83000
O291        O  0.82867964  0.57651219  0.88714533    -0.85600
C292        C  0.80513357  0.56747557  0.87027778     1.02100
O293        O  0.77952416  0.58360339  0.87075942    -0.78400
O294        O  0.73598461  0.62968997  0.89075106    -0.78600
C295        C  0.72396671  0.62256644  0.91771782     1.02000
O296        O  0.75809691  0.68631077  0.92034731    -0.85900
O297        O  0.81634942  0.67986654  0.95225204    -0.83000
C298        C  0.84208381  0.66795794  0.96275413     0.97600
O299        O  0.84819297  0.63841181  0.95806036    -0.83000
O300        O  0.85810802  0.63904710  0.89272834    -0.85600
C301        C  0.84990959  0.64322564  0.86379589     1.02100
O302        O  0.82325543  0.63288832  0.85377080    -0.78400
O303        O  0.78156827  0.67923167  0.87416809    -0.78600
C304        C  0.76588635  0.69685461  0.89310571     1.02000
Cr305      Cr  0.77870392  0.65146048  0.94637950     1.93700
Cr306      Cr  0.83348908  0.60956106  0.92217063     1.93200
Cr307      Cr  0.78116775  0.63135430  0.87552616     1.39100
O308        O  0.79764013  0.63071563  0.91442181    -1.23600
O309        O  0.34420401  0.37731223  0.96784293    -0.85900
O310        O  0.29955539  0.35112822  0.00538037    -0.82900
C311        C  0.28948053  0.33526220  0.02879623     0.97600
O312        O  0.30181883  0.33880037  0.05651202    -0.83000
O313        O  0.36832181  0.32265526  0.06031268    -0.85600
C314        C  0.39808983  0.32512415  0.05474929     1.02100
O315        O  0.40963705  0.35263686  0.04924719    -0.78400
O316        O  0.38706288  0.35316200  0.98752166    -0.78600
C317        C  0.36765644  0.35781566  0.96496617     1.02000
O318        O  0.33716888  0.43772579  0.00422080    -0.85900
O319        O  0.29037066  0.41001208  0.04083335    -0.83000
C320        C  0.29600727  0.41554171  0.07010674     0.97600
O321        O  0.31788078  0.40063475  0.08465676    -0.83000
O322        O  0.38077678  0.38595470  0.09207908    -0.85600
C323        C  0.39465769  0.41187756  0.08266138     1.02100
O324        O  0.39536463  0.41912430  0.05338426    -0.78400
O325        O  0.38360439  0.42072706  0.98836778    -0.78600
C326        C  0.36243406  0.44223744  0.98856607     1.02000
Cr327      Cr  0.32012562  0.39312519  0.00666074     1.93700
Cr328      Cr  0.34270694  0.36278192  0.07064277     1.93200
Cr329      Cr  0.39092504  0.38599696  0.02075561     1.39100
O330        O  0.35071288  0.38016288  0.03269149    -1.23600
O331        O  0.35025851  0.39441973  0.78127669    -0.85900
O332        O  0.39233011  0.43819552  0.75518086    -0.82900
C333        C  0.40880774  0.45395065  0.73540889     0.97600
O334        O  0.40563978  0.44882809  0.70551349    -0.83000
O335        O  0.42255754  0.38335209  0.69480914    -0.85600
C336        C  0.42056006  0.35291223  0.69669869     1.02100
O337        O  0.39335200  0.33957543  0.69976897    -0.78400
O338        O  0.37621178  0.35307590  0.76141102    -0.78600
C339        C  0.36456274  0.36784147  0.78486730     1.02000
O340        O  0.30287800  0.41457972  0.73712700    -0.85900
O341        O  0.34229393  0.46158994  0.71345095    -0.83000
C342        C  0.33654157  0.45980585  0.68373176     0.97600
O343        O  0.34895940  0.43763807  0.66715226    -0.83000
O344        O  0.36833994  0.37553782  0.65206490    -0.85600
C345        C  0.34226025  0.35972695  0.65430960     1.02100
O346        O  0.32874613  0.35621827  0.68088811    -0.78400
O347        O  0.31070543  0.36267730  0.74272567    -0.78600
C348        C  0.29240247  0.38691796  0.74360931     1.02000
Cr349      Cr  0.34833252  0.42521801  0.74457288     1.93700
Cr350      Cr  0.38495592  0.41044847  0.68235683     1.93200
Cr351      Cr  0.35307425  0.35601766  0.72063745     1.39100
O352        O  0.36226767  0.39725266  0.71591669    -1.23600
O353        O  0.07834120  0.22134953  0.85774865    -0.85900
O354        O  0.04027650  0.25952232  0.89285153    -0.82900
C355        C  0.02998916  0.28294643  0.90873095     0.97600
O356        O  0.04379077  0.31035530  0.90711148    -0.83000
O357        O  0.10920044  0.30698990  0.92724597    -0.85600
C358        C  0.13838882  0.29858955  0.92681952     1.02100
O359        O  0.15082273  0.28886601  0.90095166    -0.78400
O360        O  0.12020501  0.23163741  0.88780764    -0.78600
C361        C  0.09847198  0.21272622  0.87863295     1.02000
O362        O  0.07652840  0.26778280  0.80623420    -0.85900
O363        O  0.03311279  0.30333637  0.84091811    -0.83000
C364        C  0.04096894  0.33248722  0.83734445     0.97600
O365        O  0.06586486  0.34350046  0.85047370    -0.83000
O366        O  0.12882705  0.34270016  0.87044120    -0.85600
C367        C  0.14486195  0.33448179  0.84574536     1.02100
O368        O  0.14359807  0.30612669  0.83521876    -0.78400
O369        O  0.12199824  0.24608625  0.82038034    -0.78600
C370        C  0.10204689  0.25345824  0.79887415     1.02000
Cr371      Cr  0.05960847  0.26474814  0.85060045     1.93700
Cr372      Cr  0.08730124  0.32294181  0.88753651     1.93200
Cr373      Cr  0.13120991  0.26945275  0.86162927     1.39100
O374        O  0.09256115  0.28590374  0.86681731    -1.23600
O375        O  0.10434871  0.02547725  0.84966551    -0.85900
O376        O  0.14309125  0.99293908  0.80738013    -0.82900
C377        C  0.15567534  0.97078686  0.79122602     0.97600
O378        O  0.15052097  0.94156769  0.79901680    -0.83000
O379        O  0.16934064  0.93398152  0.86478256    -0.85600
C380        C  0.16817298  0.93781291  0.89494998     1.02100
O381        O  0.14165235  0.94407653  0.90846811    -0.78400
O382        O  0.12869254  0.00614459  0.89198246    -0.78600
C383        C  0.11977895  0.02957734  0.87532232     1.02000
O384        O  0.05256313  0.98437693  0.83343668    -0.85900
O385        O  0.08891673  0.95433225  0.78797658    -0.83000
C386        C  0.08083365  0.92515275  0.79161404     0.97600
O387        O  0.09179035  0.90895669  0.81477295    -0.83000
O388        O  0.11258922  0.89585925  0.87685100    -0.85600
C389        C  0.08725227  0.90065052  0.89311458     1.02100
O390        O  0.07532713  0.92827005  0.89469766    -0.78400
O391        O  0.06149247  0.99112431  0.88472737    -0.78600
C392        C  0.04274990  0.99187618  0.86093730     1.02000
Cr393      Cr  0.09844219  0.98713573  0.82177044     1.93700
Cr394      Cr  0.12992215  0.92277207  0.83965442     1.93200
Cr395      Cr  0.10247118  0.96667506  0.89185477     1.39100
O396        O  0.11038569  0.95894122  0.85109822    -1.23600
O397        O  0.91028933  0.71807568  0.65046894    -0.85900
O398        O  0.95929751  0.74875909  0.62241379    -0.82900
C399        C  0.97272667  0.76989296  0.60561533     0.97600
O400        O  0.96330581  0.79909303  0.60663616    -0.83000
O401        O  0.89886512  0.80711895  0.58545520    -0.85600
C402        C  0.86855938  0.80447061  0.58518994     1.02100
O403        O  0.85376643  0.80061594  0.61125584    -0.78400
O404        O  0.87109382  0.73803280  0.62125225    -0.78600
C405        C  0.88898119  0.71498444  0.62903689     1.02000
O406        O  0.91736860  0.75914498  0.70633374    -0.85900
O407        O  0.96833770  0.78867061  0.67709851    -0.83000
C408        C  0.96646992  0.81885376  0.68011675     0.97600
O409        O  0.94651490  0.83493370  0.66398247    -0.83000
O410        O  0.88467832  0.84599213  0.64233035    -0.85600
C411        C  0.86637370  0.84090383  0.66641090     1.02100
O412        O  0.86315183  0.81292753  0.67771138    -0.78400
O413        O  0.87015297  0.74738418  0.68809088    -0.78600
C414        C  0.89064496  0.74573539  0.71013689     1.02000
Cr415      Cr  0.93666522  0.75604921  0.66283138     1.93700
Cr416      Cr  0.92245260  0.81911716  0.62587174     1.93200
Cr417      Cr  0.86780233  0.77565144  0.64946566     1.39100
O418        O  0.90939460  0.78365219  0.64581828    -1.23600
O419        O  0.91317663  0.52481483  0.66362367    -0.85900
O420        O  0.87114626  0.49370403  0.70341079    -0.82900
C421        C  0.85294985  0.47235610  0.71469986     0.97600
O422        O  0.85492060  0.44329053  0.70480218    -0.83000
O423        O  0.83929025  0.44093530  0.63929633    -0.85600
C424        C  0.84117559  0.44604491  0.60953930     1.02100
O425        O  0.86814109  0.45251900  0.59706003    -0.78400
O426        O  0.88444076  0.51177880  0.62165746    -0.78600
C427        C  0.89756360  0.53266363  0.63892528     1.02000
O428        O  0.95979183  0.47651694  0.67564144    -0.85900
O429        O  0.91950539  0.44757637  0.71965179    -0.83000
C430        C  0.92309196  0.41785283  0.71416197     0.97600
O431        O  0.91132200  0.40528782  0.68939640    -0.83000
O432        O  0.89456113  0.39958457  0.62576153    -0.85600
C433        C  0.92058097  0.40494074  0.61039249     1.02100
O434        O  0.93279753  0.43252012  0.61038487    -0.78400
O435        O  0.95069091  0.49237907  0.62644094    -0.78600
C436        C  0.96988419  0.48758097  0.64939010     1.02000
Cr437      Cr  0.91456038  0.48375565  0.68830364     1.93700
Cr438      Cr  0.87650468  0.42485886  0.66429557     1.93200
Cr439      Cr  0.90809809  0.47138011  0.61686291     1.39100
O440        O  0.89954119  0.45991620  0.65660578    -1.23600
O441        O  0.98496834  0.33399978  0.40565742    -0.85900
O442        O  0.01746558  0.29324110  0.36608800    -0.82900
C443        C  0.03942740  0.28037928  0.35001623     0.97600
O444        O  0.06801727  0.29094771  0.35174189    -0.83000
O445        O  0.06849994  0.35612722  0.33143145    -0.85600
C446        C  0.06292619  0.38608912  0.33187140     1.02100
O447        O  0.05630908  0.39982503  0.35815039    -0.78400
O448        O  0.99744012  0.37580212  0.37588756    -0.78600
C449        C  0.97683526  0.35775379  0.38858986     1.02000
O450        O  0.03240425  0.32503701  0.45353856    -0.85900
O451        O  0.06291236  0.27985685  0.41609408    -0.83000
C452        C  0.09242486  0.28607832  0.41959702     0.97600
O453        O  0.10462486  0.31062322  0.40659397    -0.83000
O454        O  0.10916920  0.37299518  0.38511961    -0.85600
C455        C  0.10427719  0.38873873  0.41074273     1.02100
O456        O  0.07687452  0.38970164  0.42316643    -0.78400
O457        O  0.01671280  0.37402931  0.44207464    -0.78600
C458        C  0.02071810  0.35157012  0.46221211     1.02000
Cr459      Cr  0.02629027  0.31026857  0.40891999     1.93700
Cr460      Cr  0.08484504  0.33328668  0.37010973     1.93200
Cr461      Cr  0.03784578  0.38189848  0.39915286     1.39100
O462        O  0.04969215  0.34174423  0.39258840    -1.23600
O463        O  0.77613201  0.36386717  0.44170365    -0.85900
O464        O  0.72120822  0.37024033  0.47783549    -0.82900
C465        C  0.72127115  0.39979113  0.47143480     0.97600
O466        O  0.70924042  0.40900399  0.44517732    -0.83000
O467        O  0.69370125  0.40739058  0.37959360    -0.85600
C468        C  0.71876848  0.41187309  0.36286032     1.02100
O469        O  0.74253981  0.39355362  0.36624534    -0.78400
O470        O  0.78189081  0.34811919  0.39179120    -0.78600
C471        C  0.79309598  0.36087227  0.41692338     1.02000
O472        O  0.75855799  0.29953637  0.42598321    -0.85900
O473        O  0.70020817  0.31006378  0.45502159    -0.83000
C474        C  0.67401216  0.32273310  0.46305367     0.97600
O475        O  0.66724526  0.35145672  0.45462113    -0.83000
O476        O  0.65880514  0.34842872  0.38885734    -0.85600
C477        C  0.66750591  0.34182258  0.36051206     1.02100
O478        O  0.69619709  0.34589439  0.35166252    -0.78400
O479        O  0.73341168  0.29971002  0.38033766    -0.78600
C480        C  0.74980673  0.28499432  0.40097590     1.02000
Cr481      Cr  0.73765649  0.33716858  0.44754669     1.93700
Cr482      Cr  0.68466163  0.37770382  0.41718821     1.93200
Cr483      Cr  0.73718527  0.34719332  0.37537679     1.39100
O484        O  0.71957285  0.35391536  0.41303120    -1.23600
O485        O  0.87299796  0.06820991  0.23723792    -0.85900
O486        O  0.88074719  0.02676526  0.28837724    -0.82900
C487        C  0.91057187  0.03093668  0.28936082     0.97600
O488        O  0.92163503  0.05648319  0.30198924    -0.83000
O489        O  0.92281030  0.12209001  0.32157802    -0.85600
C490        C  0.92652249  0.14006653  0.29722443     1.02100
O491        O  0.90660422  0.13899634  0.27470197    -0.78400
O492        O  0.85768153  0.11885210  0.23689804    -0.78600
C493        C  0.86828565  0.09427504  0.22255761     1.02000
O494        O  0.81059170  0.08406828  0.26012628    -0.85900
O495        O  0.82351448  0.04997634  0.31493246    -0.83000
C496        C  0.83727492  0.03982423  0.33974695     0.97600
O497        O  0.86653194  0.04645327  0.34527066    -0.83000
O498        O  0.86463391  0.11084613  0.35840957    -0.85600
C499        C  0.85589252  0.13926169  0.35198052     1.02100
O500        O  0.86269390  0.15188500  0.32537163    -0.78400
O501        O  0.81370013  0.12773805  0.28881480    -0.78600
C502        C  0.79753290  0.10891239  0.27153730     1.02000
Cr503      Cr  0.84843452  0.05965700  0.27663783     1.93700
Cr504      Cr  0.89262609  0.08440574  0.32949230     1.93200
Cr505      Cr  0.86071009  0.13147741  0.28253954     1.39100
O506        O  0.86736711  0.09204629  0.29636650    -1.23600
O507        O  0.82379397  0.11277541  0.02189602    -0.85900
O508        O  0.78145200  0.11442775  0.97060206    -0.82900
C509        C  0.78319811  0.14455769  0.96870875     0.97600
O510        O  0.80774993  0.15714323  0.95557040    -0.83000
O511        O  0.87325002  0.16278732  0.93526020    -0.85600
C512        C  0.89148291  0.16798891  0.95915118     1.02100
O513        O  0.89167701  0.14849143  0.98217180    -0.78400
O514        O  0.87504631  0.10027534  0.02224304    -0.78600
C515        C  0.85008140  0.10996521  0.03651256     1.02000
O516        O  0.84371529  0.05061402  0.00245107    -0.85900
O517        O  0.80990831  0.05782381  0.94724034    -0.83000
C518        C  0.79902958  0.06887854  0.92143792     0.97600
O519        O  0.80186938  0.09876955  0.91473538    -0.83000
O520        O  0.86594486  0.10232575  0.90058285    -0.95200
C521        C  0.89486723  0.09575582  0.90677265     1.02100
O522        O  0.90708741  0.10340790  0.93324497    -0.78400
O523        O  0.88613770  0.05409935  0.97220854    -0.78600
C524        C  0.86864931  0.03800799  0.99101815     1.02000
Cr525      Cr  0.81684977  0.08555282  0.98396061     1.93700
Cr526      Cr  0.83768586  0.12918487  0.92888120     1.93200
Cr527      Cr  0.88712489  0.10188465  0.97633630     1.39100
O528        O  0.84746771  0.10577263  0.96289202    -1.23600
C529        C  0.87179358  0.09583162  0.18800334    -0.05800
C530        C  0.89445335  0.07698780  0.17188572    -0.05700
C531        C  0.89620352  0.07809737  0.13860845    -0.23900
C532        C  0.87467611  0.09734098  0.12140924     0.18300
C533        C  0.85176815  0.11625942  0.13769528     0.15600
C534        C  0.85091090  0.11579245  0.17090387    -0.18900
C535        C  0.82933343  0.13440589  0.12052293    -0.20700
C536        C  0.82895378  0.13303314  0.08724082    -0.13300
C537        C  0.85155920  0.11419241  0.07104211     0.03400
C538        C  0.87479904  0.09698557  0.08817542    -0.25400
H539        H  0.91066948  0.06153775  0.18501040     0.08500
H540        H  0.91376671  0.06336344  0.12631491     0.12100
H541        H  0.83300725  0.12995465  0.18343520     0.12000
H542        H  0.81157059  0.14887293  0.13283861     0.11800
H543        H  0.81091617  0.14635358  0.07419444     0.12300
H544        H  0.89201110  0.08194407  0.07570037     0.14200
C545        C  0.76101755  0.25174019  0.39482586    -0.05800
C546        C  0.74666132  0.23315538  0.37072161    -0.05700
C547        C  0.76009416  0.20386664  0.36140686    -0.23900
C548        C  0.78861868  0.19308381  0.37545364     0.18300
C549        C  0.80240097  0.21055843  0.40094416     0.15600
C550        C  0.78807057  0.23950284  0.41096438    -0.18900
C551        C  0.83156569  0.20003831  0.41418924    -0.20700
C552        C  0.84832399  0.17428757  0.40026765    -0.13300
C553        C  0.83555036  0.15827043  0.37366559     0.03400
C554        C  0.80494796  0.16667019  0.36258023    -0.25400
H555        H  0.72560070  0.24179740  0.35830742     0.08500
H556        H  0.74909209  0.19055450  0.34204208     0.12100
H557        H  0.79935299  0.25360967  0.42964781     0.12000
H558        H  0.84244820  0.21307966  0.43382522     0.11800
H559        H  0.87209278  0.16840732  0.40879391     0.12300
H560        H  0.79514505  0.15437949  0.34197176     0.14200
C561        C  0.03138380  0.25015991  0.33337497    -0.05800
C562        C  0.04144378  0.22089837  0.34687593    -0.05700
C563        C  0.02506183  0.19215961  0.34014450    -0.23900
C564        C  0.99847783  0.19225593  0.31959955     0.18300
C565        C  0.99021490  0.22114904  0.30367134     0.15600
C566        C  0.00650203  0.24992013  0.31087141    -0.18900
C567        C  0.96430310  0.22132975  0.28251067    -0.20700
C568        C  0.94536929  0.19386209  0.27876404    -0.13300
C569        C  0.95146264  0.16571794  0.29654957     0.03400
C570        C  0.97880401  0.16471993  0.31624169    -0.25400
H571        H  0.06009195  0.22074840  0.36488073     0.08500
H572        H  0.03205157  0.17027707  0.35238655     0.12100
H573        H  0.99825654  0.27253067  0.30086661     0.12000
H574        H  0.95783439  0.24313353  0.26983484     0.11800
H575        H  0.92455996  0.19543990  0.26339851     0.12300
H576        H  0.98391916  0.14315651  0.32992084     0.14200
C577        C  0.82701889  0.36947012  0.41760865    -0.05800
C578        C  0.84373757  0.36979263  0.44668446    -0.05700
C579        C  0.87707695  0.37086371  0.44663640    -0.23900
C580        C  0.89376896  0.37160140  0.41751077     0.18300
C581        C  0.87697732  0.37402865  0.38828197     0.15600
C582        C  0.84360562  0.37329509  0.38859197    -0.18900
C583        C  0.89384530  0.37495378  0.35916229    -0.20700
C584        C  0.92707500  0.37122399  0.35894417    -0.13300
C585        C  0.94324219  0.36640876  0.38780978     0.03400
C586        C  0.92685028  0.36791785  0.41701782    -0.25400
H587        H  0.83119563  0.36713280  0.46927747     0.08500
H588        H  0.88977754  0.36938834  0.46918787     0.12100
H589        H  0.83062910  0.37364387  0.36613509     0.12000
H590        H  0.88125128  0.37713307  0.33662480     0.11800
H591        H  0.93986830  0.37044153  0.33636166     0.12300
H592        H  0.93979754  0.36483920  0.43930166     0.14200
C593        C  0.81226279  0.44223646  0.58880001    -0.05800
C594        C  0.78471355  0.42675281  0.60082063    -0.05700
C595        C  0.75908006  0.41902235  0.58065829    -0.23900
C596        C  0.76025050  0.42680021  0.54799581     0.18300
C597        C  0.78675453  0.44421959  0.53586097     0.15600
C598        C  0.81265369  0.45176335  0.55630104    -0.18900
C599        C  0.78756129  0.45222206  0.50313456    -0.20700
C600        C  0.76364693  0.44094661  0.48229722    -0.13300
C601        C  0.73859036  0.42141527  0.49378662     0.03400
C602        C  0.73640278  0.41558170  0.52694535    -0.25400
H603        H  0.78350348  0.41930700  0.62564085     0.08500
H604        H  0.73879834  0.40591490  0.59042461     0.12100
H605        H  0.83352571  0.46400466  0.54665019     0.12000
H606        H  0.80757154  0.46571961  0.49334538     0.11800
H607        H  0.76629861  0.44511779  0.45682738     0.12300
H608        H  0.71740064  0.40016932  0.53599290     0.14200
C609        C  0.00940057  0.35603709  0.49531494    -0.05800
C610        C  0.02771182  0.37417284  0.51682931    -0.05700
C611        C  0.01520368  0.38243316  0.54677701    -0.23900
C612        C  0.98378854  0.37347257  0.55519307     0.18300
C613        C  0.96539996  0.35440707  0.53409911     0.15600
C614        C  0.97859583  0.34533021  0.50435681    -0.18900
C615        C  0.93348087  0.34673725  0.54226048    -0.20700
C616        C  0.91907381  0.36032664  0.56955758    -0.13300
C617        C  0.93666926  0.38112009  0.58936073     0.03400
C618        C  0.96962987  0.38566994  0.58308605    -0.25400
H619        H  0.05133271  0.38275271  0.51004038     0.08500
H620        H  0.02948222  0.39723486  0.56267473     0.12100
H621        H  0.96429234  0.33166795  0.48749642     0.12000
H622        H  0.91903633  0.33208474  0.52639663     0.11800
H623        H  0.89366721  0.35672304  0.57364122     0.12300
H624        H  0.98350744  0.40160775  0.59828355     0.14200
C625        C  0.88437401  0.68312173  0.61546117    -0.05800
C626        C  0.85359607  0.66990001  0.61218725    -0.05700
C627        C  0.84981246  0.63647475  0.61079580    -0.23900
C628        C  0.87674364  0.61652319  0.61373626     0.18300
C629        C  0.90784910  0.63035170  0.61384754     0.15600
C630        C  0.91136538  0.66351556  0.61321209    -0.18900
C631        C  0.93487215  0.61119250  0.61844228    -0.20700
C632        C  0.93101321  0.57897231  0.62591649    -0.13300
C633        C  0.90024857  0.56544926  0.62760931     0.03400
C634        C  0.87320226  0.58355397  0.61969988    -0.25400
H635        H  0.83256425  0.68506267  0.61371750     0.08500
H636        H  0.82585806  0.62632170  0.61039005     0.12100
H637        H  0.93513833  0.67406419  0.61524453     0.12000
H638        H  0.95878220  0.62153461  0.61848656     0.11800
H639        H  0.95203614  0.56468730  0.63123144     0.12300
H640        H  0.84956178  0.57268107  0.62088328     0.14200
C641        C  0.98827123  0.83476998  0.70320303    -0.05800
C642        C  0.00416507  0.81589292  0.72619846    -0.05700
C643        C  0.02512141  0.82986240  0.74811099    -0.23900
C644        C  0.03091407  0.86303088  0.74739089     0.18300
C645        C  0.01513889  0.88241595  0.72447954     0.15600
C646        C  0.99365932  0.86821958  0.70266768    -0.18900
C647        C  0.02134878  0.91559449  0.72369714    -0.20700
C648        C  0.04297064  0.92933798  0.74530043    -0.13300
C649        C  0.05863532  0.91023104  0.76828222     0.03400
C650        C  0.05234477  0.87702530  0.76918752    -0.25400
H651        H  0.00028949  0.79011705  0.72741081     0.08500
H652        H  0.03693764  0.81465292  0.76552187     0.12100
H653        H  0.98161049  0.88303945  0.68507171     0.12000
H654        H  0.00955970  0.93090134  0.70635517     0.11800
H655        H  0.04720771  0.95506202  0.74416866     0.12300
H656        H  0.06421384  0.86200855  0.78674547     0.14200
C657        C  0.00965420  0.00319565  0.86557312    -0.05800
C658        C  0.98967177  0.98740964  0.88758322    -0.05700
C659        C  0.95985816  0.00032184  0.89565021    -0.23900
C660        C  0.95015217  0.02992179  0.88274425     0.18300
C661        C  0.96969698  0.04566993  0.85985025     0.15600
C662        C  0.99913358  0.03175259  0.85083101    -0.18900
C663        C  0.96051225  0.07611098  0.84828951    -0.20700
C664        C  0.93368270  0.09183392  0.86122615    -0.13300
C665        C  0.91512884  0.07679885  0.88497956     0.03400
C666        C  0.92263788  0.04526999  0.89446500    -0.25400
H667        H  0.99753568  0.96543381  0.89910889     0.08500
H668        H  0.94515956  0.98799927  0.91324638     0.12100
H669        H  0.01483828  0.04422371  0.83419344     0.12000
H670        H  0.97525994  0.08864006  0.83087531     0.11800
H671        H  0.92872288  0.11645736  0.85430198     0.12300
H672        H  0.90874045  0.03393461  0.91335188     0.14200
C673        C  0.99929744  0.27745575  0.92559762    -0.05800
C674        C  0.97077197  0.28579575  0.90976910    -0.05700
C675        C  0.94231244  0.26841430  0.91525666    -0.23900
C676        C  0.94191888  0.24232896  0.93670032     0.18300
C677        C  0.96972616  0.23607186  0.95500068     0.15600
C678        C  0.99809796  0.25361530  0.94937166    -0.18900
C679        C  0.96961968  0.21061437  0.97684790    -0.20700
C680        C  0.94312214  0.19024562  0.97922067    -0.13300
C681        C  0.91604688  0.19430688  0.95946222     0.03400
C682        C  0.91523207  0.22115535  0.93874011    -0.25400
H683        H  0.97130714  0.30347156  0.89068638     0.08500
H684        H  0.92127820  0.27399616  0.90116959     0.12100
H685        H  0.02012607  0.24644840  0.96109952     0.12000
H686        H  0.99059747  0.20559653  0.99124813     0.11800
H687        H  0.94474795  0.16999782  0.99547892     0.12300
H688        H  0.89460025  0.22482092  0.92347485     0.14200
C689        C  0.94121220  0.39767490  0.73687274    -0.05800
C690        C  0.93915488  0.36393841  0.73511710    -0.05700
C691        C  0.95754189  0.34465291  0.75526875    -0.23900
C692        C  0.97867914  0.35876795  0.77720028     0.18300
C693        C  0.98082783  0.39265853  0.77940395     0.15600
C694        C  0.96176307  0.41191746  0.75950037    -0.18900
C695        C  0.00254522  0.40663693  0.80095557    -0.20700
C696        C  0.02231261  0.38717679  0.81978503    -0.13300
C697        C  0.02027990  0.35346169  0.81770999     0.03400
C698        C  0.99811891  0.33947496  0.79653194    -0.25400
H699        H  0.92342262  0.35240867  0.71798574     0.08500
H700        H  0.95563325  0.31869356  0.75331411     0.12100
H701        H  0.96369464  0.43792008  0.76092415     0.12000
H702        H  0.00452350  0.43258389  0.80295529     0.11800
H703        H  0.03905714  0.39847991  0.83608132     0.12300
H704        H  0.99643339  0.31348630  0.79456717     0.14200
C705        C  0.12270517  0.06215975  0.88743011    -0.05800
C706        C  0.15247269  0.07741228  0.89056282    -0.05700
C707        C  0.15376319  0.11077797  0.89493359    -0.23900
C708        C  0.12527793  0.12875476  0.89562538     0.18300
C709        C  0.09530717  0.11271357  0.89488942     0.15600
C710        C  0.09432084  0.07946924  0.89138761    -0.18900
C711        C  0.06677101  0.13029244  0.89453523    -0.20700
C712        C  0.06791190  0.16357040  0.89156384    -0.13300
C713        C  0.09754132  0.17952374  0.88987020     0.03400
C714        C  0.12614084  0.16238171  0.89395963    -0.25400
H715        H  0.17447250  0.06394070  0.88756753     0.08500
H716        H  0.17689201  0.12268530  0.89562338     0.12100
H717        H  0.07138356  0.06726254  0.88906377     0.12000
H718        H  0.04369802  0.11821645  0.89421491     0.11800
H719        H  0.04568444  0.17674330  0.88886048     0.12300
H720        H  0.14898836  0.17482263  0.89250573     0.14200
C721        C  0.16742120  0.35651979  0.82953191    -0.05800
C722        C  0.18790338  0.37669500  0.84705110    -0.05700
C723        C  0.21507753  0.39019575  0.83237125    -0.23900
C724        C  0.22217446  0.38328725  0.80016347     0.18300
C725        C  0.20044847  0.36465759  0.78199314     0.15600
C726        C  0.17294835  0.35209512  0.79662346    -0.18900
C727        C  0.20778726  0.35664325  0.75018214    -0.20700
C728        C  0.23741151  0.36520743  0.73707282    -0.13300
C729        C  0.25949599  0.38281023  0.75520442     0.03400
C730        C  0.25148066  0.39275148  0.78637316    -0.25400
H731        H  0.18421449  0.38009543  0.87249871     0.08500
H732        H  0.23147233  0.40443386  0.84665065     0.12100
H733        H  0.15711306  0.33661884  0.78298692     0.12000
H734        H  0.19135469  0.34229423  0.73604547     0.11800
H735        H  0.24353318  0.35725951  0.71312901     0.12300
H736        H  0.26893201  0.40586020  0.80052286     0.14200
C737        C  0.15950871  0.30205429  0.95557778    -0.05800
C738        C  0.15281804  0.32496594  0.97943953    -0.05700
C739        C  0.17566063  0.33243134  0.00302384    -0.23900
C740        C  0.20566170  0.31701388  0.00339223     0.18300
C741        C  0.21177394  0.29234157  0.98095816     0.15600
C742        C  0.18874709  0.28501766  0.95731934    -0.18900
C743        C  0.24175032  0.27701377  0.98107571    -0.20700
C744        C  0.26639806  0.28804924  0.00105977    -0.13300
C745        C  0.26156156  0.31424115  0.02180054     0.03400
C746        C  0.23051212  0.32759036  0.02391875    -0.25400
H747        H  0.13064102  0.33844540  0.97881550     0.08500
H748        H  0.17039001  0.35131134  0.02011310     0.12100
H749        H  0.19427972  0.26710240  0.93927949     0.12000
H750        H  0.24689124  0.25799159  0.96409248     0.11800
H751        H  0.29021733  0.27812576  0.99807074     0.12300
H752        H  0.22673222  0.34859503  0.03885187     0.14200
C753        C  0.36228083  0.35212026  0.81579113    -0.05800
C754        C  0.33149822  0.34559155  0.82766447    -0.05700
C755        C  0.32712067  0.33784694  0.85965613    -0.23900
C756        C  0.35348808  0.33763493  0.88016600     0.18300
C757        C  0.38496800  0.34117577  0.86772306     0.15600
C758        C  0.38924862  0.34779138  0.83509666    -0.18900
C759        C  0.41111298  0.34172663  0.88871822    -0.20700
C760        C  0.40571827  0.34329723  0.92168235    -0.13300
C761        C  0.37420570  0.34386672  0.93359093     0.03400
C762        C  0.34846601  0.33815823  0.91309683    -0.25400
H763        H  0.31062773  0.34845888  0.81253575     0.08500
H764        H  0.30295958  0.33482814  0.86881291     0.12100
H765        H  0.41295376  0.35285032  0.82559465     0.12000
H766        H  0.43539234  0.34393637  0.87967073     0.11800
H767        H  0.42589062  0.34735559  0.93746595     0.12300
H768        H  0.32420225  0.33808958  0.92254516     0.14200
C769        C  0.80966271  0.54015689  0.84734077    -0.05800
C770        C  0.83323950  0.51677553  0.85340209    -0.05700
C771        C  0.84291607  0.49511226  0.82953440    -0.23900
C772        C  0.82982836  0.49676013  0.79865255     0.18300
C773        C  0.80519942  0.51922873  0.79243965     0.15600
C774        C  0.79483355  0.54036252  0.81696807    -0.18900
C775        C  0.79307659  0.52174294  0.76116965    -0.20700
C776        C  0.80666195  0.50387742  0.73603245    -0.13300
C777        C  0.83187099  0.48224889  0.74169447     0.03400
C778        C  0.84262521  0.47807547  0.77338021    -0.25400
H779        H  0.84518193  0.51607634  0.87638149     0.08500
H780        H  0.86183794  0.47811498  0.83481274     0.12100
H781        H  0.77710309  0.55860776  0.81162126     0.12000
H782        H  0.77438230  0.53895205  0.75576998     0.11800
H783        H  0.79871063  0.50832187  0.71177006     0.12300
H784        H  0.86291362  0.46245146  0.77785178     0.14200
C785        C  0.88479264  0.72306036  0.73676635    -0.05800
C786        C  0.86834431  0.69445097  0.72943490    -0.05700
C787        C  0.86274258  0.67127837  0.75269598    -0.23900
C788        C  0.87263993  0.67655716  0.78415109     0.18300
C789        C  0.88923855  0.70510729  0.79232888     0.15600
C790        C  0.89599652  0.72809943  0.76821261    -0.18900
C791        C  0.89750828  0.71034863  0.82460153    -0.20700
C792        C  0.88737257  0.68862139  0.84851812    -0.13300
C793        C  0.86971934  0.66098270  0.84023659     0.03400
C794        C  0.86425029  0.65437024  0.80778506    -0.25400
H795        H  0.86013857  0.68969033  0.70529460     0.08500
H796        H  0.84988368  0.64952831  0.74620430     0.12100
H797        H  0.90882453  0.75005911  0.77399870     0.12000
H798        H  0.91018318  0.73204777  0.83152372     0.11800
H799        H  0.89145570  0.69447661  0.87343665     0.12300
H800        H  0.85074609  0.63304236  0.80108147     0.14200
C801        C  0.44937136  0.58418020  0.81039740    -0.05800
C802        C  0.42897168  0.59228554  0.78491963    -0.05700
C803        C  0.42003858  0.56905708  0.76211302    -0.23900
C804        C  0.43135174  0.53723315  0.76430140     0.18300
C805        C  0.45324657  0.52931930  0.78879893     0.15600
C806        C  0.46221983  0.55278309  0.81144362    -0.18900
C807        C  0.46420896  0.49750137  0.79155135    -0.20700
C808        C  0.45179469  0.47325953  0.77183712    -0.13300
C809        C  0.42892464  0.48040113  0.74831571     0.03400
C810        C  0.41961208  0.51274106  0.74387864    -0.25400
H811        H  0.41854182  0.61610481  0.78359004     0.08500
H812        H  0.40323596  0.57566105  0.74353019     0.12100
H813        H  0.47802065  0.54610608  0.83089236     0.12000
H814        H  0.48100416  0.49099671  0.81018391     0.11800
H815        H  0.45872134  0.44850460  0.77614662     0.12300
H816        H  0.40120692  0.51833495  0.72648879     0.14200
C817        C  0.36656639  0.47083346  0.96821571    -0.05800
C818        C  0.38066537  0.46710549  0.93790432    -0.05700
C819        C  0.38674785  0.49377269  0.91859796    -0.23900
C820        C  0.37982415  0.52475046  0.92977134     0.18300
C821        C  0.36505846  0.52884230  0.96005544     0.15600
C822        C  0.35767879  0.50164885  0.97880670    -0.18900
C823        C  0.36015661  0.56009038  0.97190920    -0.20700
C824        C  0.37231861  0.58671461  0.95519863    -0.13300
C825        C  0.38793428  0.58248832  0.92572368     0.03400
C826        C  0.39006921  0.55167823  0.91235525    -0.25400
H827        H  0.38722183  0.44341662  0.92923632     0.08500
H828        H  0.39818719  0.49026179  0.89554101     0.12100
H829        H  0.34695639  0.50454631  0.00229706     0.12000
H830        H  0.34914788  0.56375074  0.99514014     0.11800
H831        H  0.37151208  0.61029997  0.96624667     0.12300
H832        H  0.40327000  0.54835637  0.89017548     0.14200
C833        C  0.57309524  0.62546794  0.89307466    -0.05800
C834        C  0.58821811  0.61847251  0.86399665    -0.05700
C835        C  0.62110564  0.61250085  0.86342704    -0.23900
C836        C  0.63870873  0.61324085  0.89200877     0.18300
C837        C  0.62286735  0.61810476  0.92154671     0.15600
C838        C  0.59012127  0.62423216  0.92183372    -0.18900
C839        C  0.64028152  0.61857128  0.95013584    -0.20700
C840        C  0.67359568  0.61723722  0.94921061    -0.13300
C841        C  0.68964691  0.61534325  0.91968599     0.03400
C842        C  0.67205280  0.61139763  0.89135622    -0.25400
H843        H  0.57489932  0.61897736  0.84177506     0.08500
H844        H  0.63292223  0.60850965  0.84066449     0.12100
H845        H  0.57795232  0.62898185  0.94432806     0.12000
H846        H  0.62829627  0.62177153  0.97295439     0.11800
H847        H  0.68676352  0.61987687  0.97137683     0.12300
H848        H  0.68431792  0.60929455  0.86854964     0.14200
C849        C  0.37005035  0.92755743  0.37921876    -0.05800
C850        C  0.34684790  0.91232532  0.36039903    -0.05700
C851        C  0.34346966  0.87896040  0.36158212    -0.23900
C852        C  0.36454303  0.86070589  0.38028630     0.18300
C853        C  0.38693216  0.87628651  0.40051328     0.15600
C854        C  0.38864525  0.90984177  0.40069215    -0.18900
C855        C  0.40969217  0.85812955  0.41726054    -0.20700
C856        C  0.41230884  0.82518747  0.41146162    -0.13300
C857        C  0.39108389  0.81013338  0.39030731     0.03400
C858        C  0.36609618  0.82741229  0.37628185    -0.25400
H859        H  0.33277917  0.92604779  0.34345242     0.08500
H860        H  0.32637102  0.86733915  0.34585608     0.12100
H861        H  0.40708182  0.92190968  0.41453876     0.12000
H862        H  0.42706681  0.86975301  0.43268114     0.11800
H863        H  0.43178707  0.81177118  0.42215168     0.12300
H864        H  0.35023583  0.81552263  0.35943652     0.14200
C865        C  0.93049592  0.00562696  0.27398049    -0.05800
C866        C  0.95516728  0.01383774  0.25255452    -0.05700
C867        C  0.96665623  0.99108671  0.23040322    -0.23900
C868        C  0.95359030  0.95977384  0.22928793     0.18300
C869        C  0.93036109  0.95070554  0.25219877     0.15600
C870        C  0.91920599  0.97353145  0.27443717    -0.18900
C871        C  0.91726210  0.91950657  0.25133727    -0.20700
C872        C  0.92604892  0.89784294  0.22717954    -0.13300
C873        C  0.94791503  0.90695517  0.20318624     0.03400
C874        C  0.96215935  0.93788669  0.20486245    -0.25400
H875        H  0.96378724  0.03843702  0.25124178     0.08500
H876        H  0.98462654  0.99846257  0.21312041     0.12100
H877        H  0.89997469  0.96694095  0.29070562     0.12000
H878        H  0.89944630  0.91216715  0.26880576     0.11800
H879        H  0.91466130  0.87437740  0.22650850     0.12300
H880        H  0.97919781  0.94526304  0.18664149     0.14200
C881        C  0.86387264  0.68758262  0.98280426    -0.05800
C882        C  0.89470797  0.67635311  0.99045916    -0.05700
C883        C  0.91431864  0.69349631  0.01160840    -0.23900
C884        C  0.90329140  0.72198774  0.02582340     0.18300
C885        C  0.87247799  0.73364622  0.01791197     0.15600
C886        C  0.85317205  0.71662953  0.99625888    -0.18900
C887        C  0.86114378  0.76183930  0.03225439    -0.20700
C888        C  0.88000415  0.77829283  0.05437547    -0.13300
C889        C  0.91073778  0.76705747  0.06259440     0.03400
C890        C  0.92232221  0.73882761  0.04803998    -0.25400
H891        H  0.90355157  0.65405193  0.98036125     0.08500
H892        H  0.93786761  0.68417404  0.01725898     0.12100
H893        H  0.82938129  0.72546772  0.99075160     0.12000
H894        H  0.83758727  0.77110204  0.02650580     0.11800
H895        H  0.87043119  0.80005140  0.06497308     0.12300
H896        H  0.94595992  0.72992867  0.05403610     0.14200
C897        C  0.90397562  0.91041845  0.07329545    -0.05800
C898        C  0.87813673  0.92616157  0.08799454    -0.05700
C899        C  0.86389756  0.95275840  0.07310258    -0.23900
C900        C  0.87568737  0.96415156  0.04360768     0.18300
C901        C  0.90053915  0.94737523  0.02795337     0.15600
C902        C  0.91390970  0.92025934  0.04251492    -0.18900
C903        C  0.91305845  0.95912005  0.99896590    -0.20700
C904        C  0.90217584  0.98826032  0.98636851    -0.13300
C905        C  0.87811935  0.00566015  0.00217561     0.03400
C906        C  0.86426401  0.99290855  0.03031771    -0.25400
H907        H  0.87023475  0.91915286  0.11171484     0.08500
H908        H  0.84478398  0.96537622  0.08538173     0.12100
H909        H  0.93369966  0.90812586  0.03077341     0.12000
H910        H  0.93214413  0.94642932  0.98671001     0.11800
H911        H  0.91299934  0.99750758  0.96463835     0.12300
H912        H  0.84575641  0.00619963  0.04285019     0.14200
C913        C  0.07290757  0.87596643  0.91400305    -0.05800
C914        C  0.04020663  0.86862523  0.91057426    -0.05700
C915        C  0.02243733  0.85654721  0.93642088    -0.23900
C916        C  0.03687337  0.85285392  0.96647976     0.18300
C917        C  0.07028688  0.85822338  0.96951892     0.15600
C918        C  0.08823351  0.86891084  0.94300839    -0.18900
C919        C  0.08466979  0.85563332  0.99966213    -0.20700
C920        C  0.06587053  0.85010994  0.02680219    -0.13300
C921        C  0.03250096  0.84660265  0.02433890     0.03400
C922        C  0.01819341  0.84644451  0.99395275    -0.25400
H923        H  0.02787132  0.87465296  0.88859342     0.08500
H924        H  0.99693466  0.85253280  0.93352855     0.12100
H925        H  0.11322496  0.87550574  0.94606374     0.12000
H926        H  0.11023247  0.85935678  0.00246910     0.11800
H927        H  0.07739727  0.84900021  0.04992041     0.12300
H928        H  0.99243750  0.84353069  0.99197088     0.14200
C929        C  0.19716530  0.93333340  0.91549038    -0.05800
C930        C  0.22261077  0.91367124  0.90538885    -0.05700
C931        C  0.24779826  0.90613063  0.92627999    -0.23900
C932        C  0.24830485  0.91838778  0.95765821     0.18300
C933        C  0.22390913  0.93961342  0.96763787     0.15600
C934        C  0.19844973  0.94682924  0.94658196    -0.18900
C935        C  0.22468900  0.95203963  0.99900533    -0.20700
C936        C  0.24812562  0.94183475  0.02091324    -0.13300
C937        C  0.27120383  0.91901460  0.01188772     0.03400
C938        C  0.27174740  0.90834461  0.97974513    -0.25400
H939        H  0.22235036  0.90296891  0.88175297     0.08500
H940        H  0.26642861  0.88991668  0.91817450     0.12100
H941        H  0.17918149  0.96227864  0.95470807     0.12000
H942        H  0.20624945  0.96848042  0.00707226     0.11800
H943        H  0.24663728  0.94983842  0.04554208     0.12300
H944        H  0.28920059  0.89043995  0.97251864     0.14200
C945        C  0.29863514  0.94142015  0.17220957    -0.05800
C946        C  0.27855030  0.93611825  0.19892280    -0.05700
C947        C  0.28187591  0.95419960  0.22691513    -0.23900
C948        C  0.30495076  0.97863007  0.22886356     0.18300
C949        C  0.32352417  0.98627063  0.20149380     0.15600
C950        C  0.32057784  0.96736156  0.17338565    -0.18900
C951        C  0.34594487  0.01151049  0.20348269    -0.20700
C952        C  0.35158809  0.02714299  0.23276596    -0.13300
C953        C  0.33525716  0.01764085  0.26072994     0.03400
C954        C  0.31117004  0.99402576  0.25830250    -0.25400
H955        H  0.26135078  0.91653073  0.19900755     0.08500
H956        H  0.26713643  0.94822890  0.24748575     0.12100
H957        H  0.33615375  0.97197912  0.15308787     0.12000
H958        H  0.36030773  0.01804374  0.18282436     0.11800
H959        H  0.37087705  0.04461474  0.23417288     0.12300
H960        H  0.29893650  0.98599738  0.27981862     0.14200
C961        C  0.36089103  0.80965259  0.02270458    -0.05800
C962        C  0.39378952  0.81636815  0.02038739    -0.05700
C963        C  0.41312481  0.79869045  0.99939107    -0.23900
C964        C  0.39962731  0.77446348  0.98018085     0.18300
C965        C  0.36631809  0.76839129  0.98180880     0.15600
C966        C  0.34728943  0.78586043  0.00310641    -0.18900
C967        C  0.35255547  0.74458803  0.96248586    -0.20700
C968        C  0.37179120  0.72604651  0.94245060    -0.13300
C969        C  0.40510659  0.73105707  0.94131849     0.03400
C970        C  0.41883974  0.75579495  0.95982729    -0.25400
H971        H  0.40458982  0.83476611  0.03526717     0.08500
H972        H  0.43860028  0.80375670  0.99836921     0.12100
H973        H  0.32175841  0.78096597  0.00438873     0.12000
H974        H  0.32699287  0.73990587  0.96330020     0.11800
H975        H  0.36059164  0.70734234  0.92825233     0.12300
H976        H  0.44449795  0.75995468  0.95907920     0.14200
C977        C  0.37713760  0.83029418  0.16425794    -0.05800
C978        C  0.40086691  0.84656209  0.18169334    -0.05700
C979        C  0.41438610  0.83220112  0.20895000    -0.23900
C980        C  0.40340631  0.80194693  0.21965267     0.18300
C981        C  0.38046943  0.78505879  0.20123626     0.15600
C982        C  0.36829432  0.79895278  0.17330015    -0.18900
C983        C  0.36797161  0.75573963  0.21236292    -0.20700
C984        C  0.37687874  0.74392277  0.24226892    -0.13300
C985        C  0.39918323  0.76060471  0.26103954     0.03400
C986        C  0.41317956  0.78918644  0.24934156    -0.25400
H987        H  0.40719267  0.87114321  0.17563943     0.08500
H988        H  0.43178353  0.84563771  0.22281384     0.12100
H989        H  0.34931136  0.78673258  0.16035077     0.12000
H990        H  0.35019854  0.74268888  0.19859039     0.11800
H991        H  0.36592271  0.72193774  0.25107559     0.12300
H992        H  0.43009238  0.80230445  0.26410426     0.14200
C993        C  0.19071408  0.86952669  0.10569901    -0.05800
C994        C  0.17310625  0.88274651  0.08038293    -0.05700
C995        C  0.14016173  0.88699123  0.08363005    -0.23900
C996        C  0.12470219  0.87705556  0.11179817     0.18300
C997        C  0.14261891  0.86533758  0.13793967     0.15600
C998        C  0.17562212  0.86276290  0.13504630    -0.18900
C999        C  0.12702644  0.85359490  0.16542094    -0.20700
C1000       C  0.09379014  0.85035128  0.16554274    -0.13300
C1001       C  0.07643688  0.86040734  0.13886534     0.03400
C1002       C  0.09151631  0.87578812  0.11318649    -0.25400
H1003       H  0.18454247  0.88862726  0.05780696     0.08500
H1004       H  0.12656277  0.89601508  0.06346900     0.12100
H1005       H  0.18912125  0.85296864  0.15492950     0.12000
H1006       H  0.14059284  0.84464969  0.18562748     0.11800
H1007       H  0.08188050  0.83863467  0.18548077     0.12300
H1008       H  0.07744589  0.88411645  0.09304921     0.14200
C1009       C  0.57187862  0.82702763  0.80481247    -0.05800
C1010       C  0.57824817  0.79864252  0.78743638    -0.05700
C1011       C  0.55839024  0.77176056  0.78988809    -0.23900
C1012       C  0.53140641  0.77247180  0.80969660     0.18300
C1013       C  0.52292415  0.80150269  0.82533399     0.15600
C1014       C  0.54321146  0.82885919  0.82270197    -0.18900
C1015       C  0.49547716  0.80177599  0.84491611    -0.20700
C1016       C  0.47845155  0.77313648  0.85095580    -0.13300
C1017       C  0.48852962  0.74378287  0.83752847     0.03400
C1018       C  0.51426351  0.74393594  0.81590820    -0.25400
H1019       H  0.59959385  0.79666472  0.77274933     0.08500
H1020       H  0.56497353  0.74991156  0.77732499     0.12100
H1021       H  0.53777998  0.85057307  0.83601828     0.12000
H1022       H  0.48829963  0.82366665  0.85705388     0.11800
H1023       H  0.45916442  0.77340645  0.86837549     0.12300
H1024       H  0.52258470  0.72129016  0.80601202     0.14200
C1025       C  0.69286252  0.98798880  0.84184835    -0.05800
C1026       C  0.68823945  0.02097976  0.83588352    -0.05700
C1027       C  0.70893049  0.04390421  0.84906291    -0.23900
C1028       C  0.73503458  0.03405368  0.86765702     0.18300
C1029       C  0.74020745  0.00074239  0.87285867     0.15600
C1030       C  0.71884298  0.97803250  0.86037964    -0.18900
C1031       C  0.76662900  0.99058187  0.89057483    -0.20700
C1032       C  0.78687773  0.01316695  0.90447185    -0.13300
C1033       C  0.78104447  0.04635689  0.90106137     0.03400
C1034       C  0.75564647  0.05678145  0.88174517    -0.25400
H1035       H  0.66857773  0.02901763  0.82107920     0.08500
H1036       H  0.70462532  0.06924188  0.84458452     0.12100
H1037       H  0.72293456  0.95253374  0.86429285     0.12000
H1038       H  0.77121307  0.96517313  0.89434300     0.11800
H1039       H  0.80658751  0.00459622  0.91897339     0.12300
H1040       H  0.75098264  0.08232337  0.87905852     0.14200
C1041       C  0.75582383  0.72961513  0.88296046    -0.05800
C1042       C  0.77104324  0.74441162  0.85676582    -0.05700
C1043       C  0.76089213  0.77438906  0.84568921    -0.23900
C1044       C  0.73485045  0.78997842  0.86016472     0.18300
C1045       C  0.71942406  0.77580694  0.88677922     0.15600
C1046       C  0.73033779  0.74584615  0.89837927    -0.18900
C1047       C  0.69266489  0.79133050  0.90037277    -0.20700
C1048       C  0.68029827  0.81958009  0.88654166    -0.13300
C1049       C  0.69493524  0.83313919  0.85933890     0.03400
C1050       C  0.72309182  0.81874246  0.84727647    -0.25400
H1051       H  0.79077225  0.73265040  0.84461622     0.08500
H1052       H  0.77288602  0.78498046  0.82517567     0.12100
H1053       H  0.71823936  0.73463802  0.91850771     0.12000
H1054       H  0.68048106  0.78088035  0.92083224     0.11800
H1055       H  0.65853440  0.82992919  0.89621641     0.12300
H1056       H  0.73487860  0.82877094  0.82634838     0.14200
C1057       C  0.74970152  0.90283882  0.74462031    -0.05800
C1058       C  0.77065098  0.88794058  0.76615975    -0.05700
C1059       C  0.80069343  0.87727453  0.75596805    -0.23900
C1060       C  0.80996329  0.88088902  0.72387612     0.18300
C1061       C  0.78990606  0.89777654  0.70243289     0.15600
C1062       C  0.75979295  0.90882335  0.71303637    -0.18900
C1063       C  0.79925952  0.90095533  0.67023776    -0.20700
C1064       C  0.82671275  0.88518493  0.65885943    -0.13300
C1065       C  0.84513829  0.86609278  0.67953346     0.03400
C1066       C  0.83751948  0.86543432  0.71232251    -0.25400
H1067       H  0.76292031  0.88276376  0.79041369     0.08500
H1068       H  0.81582426  0.86445642  0.77270290     0.12100
H1069       H  0.74330125  0.91974187  0.69622711     0.12000
H1070       H  0.78430464  0.91392881  0.65346780     0.11800
H1071       H  0.83192869  0.88564917  0.63344999     0.12300
H1072       H  0.85157963  0.85058209  0.72835993     0.14200
C1073       C  0.75228100  0.82166742  0.48247754    -0.05800
C1074       C  0.74392918  0.79748284  0.50448807    -0.05700
C1075       C  0.76637404  0.78655069  0.52706062    -0.23900
C1076       C  0.79752361  0.79971952  0.52804991     0.18300
C1077       C  0.80695531  0.82201115  0.50433347     0.15600
C1078       C  0.78438280  0.83263542  0.48164865    -0.18900
C1079       C  0.83811133  0.83507540  0.50510743    -0.20700
C1080       C  0.85907707  0.82776173  0.53029781    -0.13300
C1081       C  0.84920991  0.80747699  0.55533832     0.03400
C1082       C  0.81868210  0.79261919  0.55339226    -0.25400
H1083       H  0.71935545  0.78912237  0.50611199     0.08500
H1084       H  0.75877702  0.76921872  0.54494136     0.12100
H1085       H  0.79105689  0.85153147  0.46497819     0.12000
H1086       H  0.84580053  0.85205157  0.48693783     0.11800
H1087       H  0.88231274  0.83942946  0.53113212     0.12300
H1088       H  0.81084965  0.77660760  0.57238271     0.14200
C1089       C  0.59423033  0.79667002  0.45542026    -0.05800
C1090       C  0.56874510  0.79690244  0.47766041    -0.05700
C1091       C  0.54215359  0.77674434  0.47394858    -0.23900
C1092       C  0.54043863  0.75534193  0.44815829     0.18300
C1093       C  0.56685476  0.75273393  0.42701182     0.15600
C1094       C  0.59353260  0.77364038  0.43054952    -0.18900
C1095       C  0.56512783  0.73058778  0.40164537    -0.20700
C1096       C  0.53668975  0.71338104  0.39581696    -0.13300
C1097       C  0.50935805  0.71814429  0.41502260     0.03400
C1098       C  0.51186307  0.73828511  0.44191073    -0.25400
H1099       H  0.56840310  0.81407008  0.49716133     0.08500
H1100       H  0.52232507  0.77882824  0.49062412     0.12100
H1101       H  0.61294380  0.77290786  0.41327236     0.12000
H1102       H  0.58510208  0.72791633  0.38523566     0.11800
H1103       H  0.53509527  0.69870203  0.37443630     0.12300
H1104       H  0.49072925  0.74272786  0.45640398     0.14200
C1105       C  0.81935610  0.01800504  0.36061009    -0.05800
C1106       C  0.82170968  0.01987664  0.39400086    -0.05700
C1107       C  0.80206470  0.00053655  0.41322751    -0.23900
C1108       C  0.78041286  0.97886076  0.39909939     0.18300
C1109       C  0.77920877  0.97593874  0.36542548     0.15600
C1110       C  0.79846959  0.99571609  0.34647919    -0.18900
C1111       C  0.75844667  0.95360698  0.35117578    -0.20700
C1112       C  0.73840647  0.93467155  0.37016385    -0.13300
C1113       C  0.73848581  0.93838383  0.40348219     0.03400
C1114       C  0.75970798  0.96026690  0.41792814    -0.25400
H1115       H  0.83786258  0.03699761  0.40509245     0.08500
H1116       H  0.80348615  0.00279727  0.43902524     0.12100
H1117       H  0.79710889  0.99392896  0.32060614     0.12000
H1118       H  0.75756406  0.95095967  0.32538715     0.11800
H1119       H  0.72230943  0.91766102  0.35882552     0.12300
H1120       H  0.76023971  0.96260332  0.44378022     0.14200
C1121       C  0.59573236  0.91350812  0.38516104    -0.05800
C1122       C  0.60340174  0.94389166  0.37234792    -0.05700
C1123       C  0.57904374  0.96410674  0.36061440    -0.23900
C1124       C  0.54669530  0.95436314  0.36210105     0.18300
C1125       C  0.53943347  0.92286238  0.37292763     0.15600
C1126       C  0.56393783  0.90259507  0.38361736    -0.18900
C1127       C  0.50751011  0.91284501  0.37551760    -0.20700
C1128       C  0.48278471  0.93438035  0.36950980    -0.13300
C1129       C  0.48929996  0.96614362  0.35999594     0.03400
C1130       C  0.52136092  0.97588637  0.35509043    -0.25400
H1131       H  0.62770816  0.95300803  0.37382325     0.08500
H1132       H  0.58528196  0.98806080  0.35234415     0.12100
H1133       H  0.55785264  0.87927703  0.39372703     0.12000
H1134       H  0.50161011  0.88876857  0.38371258     0.11800
H1135       H  0.45827216  0.92639783  0.37306493     0.12300
H1136       H  0.52651793  0.00044152  0.34787405     0.14200
C1137       C  0.63352509  0.87570705  0.68498726    -0.05800
C1138       C  0.60449357  0.87971617  0.66894751    -0.05700
C1139       C  0.60331521  0.87478943  0.63600360    -0.23900
C1140       C  0.63140633  0.86670805  0.61931005     0.18300
C1141       C  0.66022528  0.86094551  0.63606931     0.15600
C1142       C  0.66087988  0.86500185  0.66900027    -0.18900
C1143       C  0.68851719  0.85392586  0.61942753    -0.20700
C1144       C  0.68901353  0.85584636  0.58621917    -0.13300
C1145       C  0.66105945  0.86423539  0.56962384     0.03400
C1146       C  0.63187563  0.86730096  0.58608642    -0.25400
H1147       H  0.58338158  0.88805689  0.68158434     0.08500
H1148       H  0.58109753  0.87923310  0.62339079     0.12100
H1149       H  0.68322538  0.86215672  0.68195418     0.12000
H1150       H  0.71064318  0.84917596  0.63210124     0.11800
H1151       H  0.71161525  0.85278607  0.57376588     0.12300
H1152       H  0.61005985  0.87315698  0.57330593     0.14200
C1153       C  0.42082008  0.29741099  0.05399727    -0.05800
C1154       C  0.44731104  0.29992041  0.03316609    -0.05700
C1155       C  0.47294397  0.27858790  0.03503872    -0.23900
C1156       C  0.47298284  0.25410879  0.05798619     0.18300
C1157       C  0.44568490  0.24949566  0.07769333     0.15600
C1158       C  0.41941204  0.27111053  0.07541846    -0.18900
C1159       C  0.44640404  0.22483695  0.10079220    -0.20700
C1160       C  0.47473321  0.20731787  0.10624733    -0.13300
C1161       C  0.50276452  0.21394232  0.08858283     0.03400
C1162       C  0.50103006  0.23616131  0.06331213    -0.25400
H1163       H  0.44885588  0.31949652  0.01606220     0.08500
H1164       H  0.49350460  0.28229548  0.01954033     0.12100
H1165       H  0.39924293  0.26884319  0.09167107     0.12000
H1166       H  0.42584412  0.22063653  0.11614927     0.11800
H1167       H  0.47566780  0.19100993  0.12647407     0.12300
H1168       H  0.52268831  0.24203729  0.05008538     0.14200
C1169       C  0.75666553  0.16303653  0.98400387    -0.05800
C1170       C  0.76324627  0.18964698  0.00364003    -0.05700
C1171       C  0.74047326  0.20025322  0.02614570    -0.23900
C1172       C  0.71074175  0.18438242  0.02943895     0.18300
C1173       C  0.70288970  0.15926084  0.00814763     0.15600
C1174       C  0.72575654  0.14895591  0.98548492    -0.18900
C1175       C  0.67309123  0.14352564  0.01123009    -0.20700
C1176       C  0.65196390  0.15139210  0.03626447    -0.13300
C1177       C  0.66033140  0.17494302  0.05886355     0.03400
C1178       C  0.68947831  0.19200629  0.05463395    -0.25400
H1179       H  0.78685638  0.20056744  0.00341646     0.08500
H1180       H  0.74679645  0.21977543  0.04214099     0.12100
H1181       H  0.72035496  0.12830505  0.97054239     0.12000
H1182       H  0.66660374  0.12431114  0.99493239     0.11800
H1183       H  0.62979048  0.13799732  0.03882794     0.12300
H1184       H  0.69612382  0.21055572  0.07163920     0.14200
C1185       C  0.44883914  0.08358468  0.27104173    -0.05800
C1186       C  0.46559458  0.06502125  0.24833576    -0.05700
C1187       C  0.48742529  0.07928317  0.22723831    -0.23900
C1188       C  0.49285690  0.11256010  0.22805913     0.18300
C1189       C  0.47585609  0.13175236  0.25027290     0.15600
C1190       C  0.45413955  0.11713706  0.27183699    -0.18900
C1191       C  0.48088043  0.16520931  0.25039949    -0.20700
C1192       C  0.50241942  0.17941891  0.22874305    -0.13300
C1193       C  0.51983169  0.16042281  0.20695000     0.03400
C1194       C  0.51493645  0.12690353  0.20688832    -0.25400
H1195       H  0.46218320  0.03918393  0.24710021     0.08500
H1196       H  0.50010326  0.06422055  0.21026738     0.12100
H1197       H  0.44137079  0.13183235  0.28906729     0.12000
H1198       H  0.46804513  0.18040874  0.26712517     0.11800
H1199       H  0.50574401  0.20529499  0.22927679     0.12300
H1200       H  0.52789233  0.11201764  0.18994939     0.14200
C1201       C  0.76432523  0.11709353  0.26225861    -0.05800
C1202       C  0.74864373  0.14327457  0.27656593    -0.05700
C1203       C  0.71914767  0.15381621  0.26499251    -0.23900
C1204       C  0.70518362  0.13878926  0.23839793     0.18300
C1205       C  0.71993593  0.11158303  0.22456138     0.15600
C1206       C  0.74919212  0.10054908  0.23694726    -0.18900
C1207       C  0.70617165  0.09720050  0.19737746    -0.20700
C1208       C  0.67952600  0.11125850  0.18256082    -0.13300
C1209       C  0.66611157  0.13955404  0.19506627     0.03400
C1210       C  0.67801190  0.15204508  0.22403718    -0.25400
H1211       H  0.75970203  0.15632673  0.29601501     0.08500
H1212       H  0.70804548  0.17470035  0.27586756     0.12100
H1213       H  0.76105369  0.08034506  0.22560519     0.12000
H1214       H  0.71709542  0.07621755  0.18653715     0.11800
H1215       H  0.67083672  0.10128500  0.16025095     0.12300
H1216       H  0.66763918  0.17373548  0.23409679     0.14200
C1217       C  0.61950370  0.27939394  0.22844951    -0.05800
C1218       C  0.63849000  0.30675274  0.22251728    -0.05700
C1219       C  0.64750887  0.32709316  0.24736450    -0.23900
C1220       C  0.63836765  0.32005629  0.27883638     0.18300
C1221       C  0.61832038  0.29330562  0.28528346     0.15600
C1222       C  0.60840323  0.27333507  0.25978392    -0.18900
C1223       C  0.61018195  0.28620798  0.31726528    -0.20700
C1224       C  0.62383551  0.30388963  0.34254269    -0.13300
C1225       C  0.64530116  0.32917222  0.33601647     0.03400
C1226       C  0.65094818  0.33812531  0.30407461    -0.25400
H1227       H  0.64673867  0.31223765  0.19849795     0.08500
H1228       H  0.66275688  0.34762260  0.24210642     0.12100
H1229       H  0.59367346  0.25230468  0.26449505     0.12000
H1230       H  0.59477152  0.26589230  0.32277746     0.11800
H1231       H  0.61941604  0.29641369  0.36699624     0.12300
H1232       H  0.66742680  0.35773300  0.29885974     0.14200
C1233       C  0.71880108  0.43545327  0.33594561    -0.05800
C1234       C  0.73668459  0.42826145  0.30822967    -0.05700
C1235       C  0.73197504  0.44533034  0.27978364    -0.23900
C1236       C  0.70976777  0.47053184  0.27852179     0.18300
C1237       C  0.69379553  0.48006265  0.30688369     0.15600
C1238       C  0.69801246  0.46215774  0.33535820    -0.18900
C1239       C  0.67250037  0.50616287  0.30569799    -0.20700
C1240       C  0.66526126  0.52092176  0.27639761    -0.13300
C1241       C  0.67868439  0.50951530  0.24767317     0.03400
C1242       C  0.70176653  0.48494774  0.24904973    -0.25400
H1243       H  0.75282026  0.40786733  0.30785020     0.08500
H1244       H  0.74479263  0.43794773  0.25843639     0.12100
H1245       H  0.68420829  0.46812864  0.35654305     0.12000
H1246       H  0.66026323  0.51415769  0.32716108     0.11800
H1247       H  0.64699854  0.53942119  0.27585968     0.12300
H1248       H  0.71199229  0.47576922  0.22699290     0.14200
C1249       C  0.77825139  0.57147162  0.00114043    -0.05800
C1250       C  0.75866202  0.54544669  0.99212090    -0.05700
C1251       C  0.73484551  0.53371273  0.01307239    -0.23900
C1252       C  0.73021243  0.54785821  0.04337327     0.18300
C1253       C  0.75138062  0.57244269  0.05339022     0.15600
C1254       C  0.77522407  0.58385493  0.03240554    -0.18900
C1255       C  0.74732321  0.58655145  0.08360755    -0.20700
C1256       C  0.72186636  0.57728037  0.10338866    -0.13300
C1257       C  0.69955873  0.55401888  0.09330835     0.03400
C1258       C  0.70417013  0.53894230  0.06331177    -0.25400
H1259       H  0.76007888  0.53584891  0.96805942     0.08500
H1260       H  0.71907790  0.51463119  0.00498024     0.12100
H1261       H  0.79008115  0.60403989  0.03964456     0.12000
H1262       H  0.76340114  0.60540159  0.09165055     0.11800
H1263       H  0.71890114  0.58932342  0.12619721     0.12300
H1264       H  0.68726905  0.52080075  0.05531757     0.14200
C1265       C  0.56671033  0.57814401  0.24288591    -0.05800
C1266       C  0.55103822  0.56032744  0.26693850    -0.05700
C1267       C  0.52947925  0.57531367  0.28779087    -0.23900
C1268       C  0.52344641  0.60841158  0.28508844     0.18300
C1269       C  0.54000680  0.62670515  0.26173419     0.15600
C1270       C  0.56138058  0.61147186  0.24076863    -0.18900
C1271       C  0.53464282  0.65991716  0.25944427    -0.20700
C1272       C  0.51279477  0.67488030  0.27989199    -0.13300
C1273       C  0.49555714  0.65681644  0.30258152     0.03400
C1274       C  0.50102135  0.62352973  0.30514635    -0.25400
H1275       H  0.55482154  0.53462415  0.26913372     0.08500
H1276       H  0.51724636  0.56096174  0.30574586     0.12100
H1277       H  0.57356514  0.62555066  0.22255012     0.12000
H1278       H  0.54725388  0.67429962  0.24177611     0.11800
H1279       H  0.50893454  0.70056606  0.27760093     0.12300
H1280       H  0.48811586  0.60953603  0.32293726     0.14200
C1281       C  0.50404130  0.63908395  0.00131925    -0.05800
C1282       C  0.48504378  0.61939253  0.02093321    -0.05700
C1283       C  0.49659140  0.60865659  0.05039304    -0.23900
C1284       C  0.52773501  0.61673092  0.06022052     0.18300
C1285       C  0.54665898  0.63767614  0.04129464     0.15600
C1286       C  0.53446504  0.64910167  0.01199057    -0.18900
C1287       C  0.57817721  0.64483813  0.05095972    -0.20700
C1288       C  0.59162160  0.62932968  0.07760897    -0.13300
C1289       C  0.57359461  0.60674226  0.09510018     0.03400
C1290       C  0.54110434  0.60201992  0.08724532    -0.25400
H1291       H  0.46178520  0.61117641  0.01276732     0.08500
H1292       H  0.48185118  0.59255311  0.06463342     0.12100
H1293       H  0.54942677  0.66376954  0.99647608     0.12000
H1294       H  0.59303744  0.66090261  0.03681153     0.11800
H1295       H  0.61672373  0.63314618  0.08301085     0.12300
H1296       H  0.52693310  0.58467081  0.10064361     0.14200
C1297       C  0.61719271  0.42374852  0.12099372    -0.05800
C1298       C  0.58566267  0.41358793  0.11522942    -0.05700
C1299       C  0.57951463  0.38257606  0.10470752    -0.23900
C1300       C  0.60488025  0.36108114  0.10095562     0.18300
C1301       C  0.63700033  0.37181324  0.10435004     0.15600
C1302       C  0.64305144  0.40367773  0.11370730    -0.18900
C1303       C  0.66209822  0.34959219  0.10169402    -0.20700
C1304       C  0.65514897  0.31667838  0.10064065    -0.13300
C1305       C  0.62312340  0.30617549  0.10158004     0.03400
C1306       C  0.59832309  0.32835870  0.09819619    -0.25400
H1307       H  0.56560141  0.42934704  0.12004348     0.08500
H1308       H  0.55486303  0.37474971  0.10195591     0.12100
H1309       H  0.66735984  0.41190445  0.11794148     0.12000
H1310       H  0.68682870  0.35734250  0.10373109     0.11800
H1311       H  0.67461767  0.29962286  0.10292878     0.12300
H1312       H  0.57363456  0.32002256  0.09840512     0.14200
C1313       C  0.41307966  0.43319466  0.10420862    -0.05800
C1314       C  0.41460080  0.46618083  0.09654585    -0.05700
C1315       C  0.43935163  0.48554065  0.10806632    -0.23900
C1316       C  0.46316230  0.47225059  0.12745181     0.18300
C1317       C  0.46017081  0.43992177  0.13800415     0.15600
C1318       C  0.43483827  0.42056323  0.12652011    -0.18900
C1319       C  0.48402487  0.42689934  0.15772926    -0.20700
C1320       C  0.51149209  0.44490462  0.16496222    -0.13300
C1321       C  0.51560796  0.47602018  0.15240173     0.03400
C1322       C  0.49097471  0.49000725  0.13452373    -0.25400
H1323       H  0.39792349  0.47644231  0.07953745     0.08500
H1324       H  0.44095692  0.51036367  0.10015607     0.12100
H1325       H  0.43402565  0.39512187  0.13234290     0.12000
H1326       H  0.48218038  0.40231569  0.16627588     0.11800
H1327       H  0.53047115  0.43380482  0.17872066     0.12300
H1328       H  0.49420156  0.51404205  0.12481909     0.14200
C1329       C  0.52509112  0.23622583  0.68163053    -0.05800
C1330       C  0.49929276  0.22555076  0.70053300    -0.05700
C1331       C  0.47470849  0.24686141  0.70938852    -0.23900
C1332       C  0.47551972  0.27927673  0.69952080     0.18300
C1333       C  0.50256364  0.29080975  0.68264345     0.15600
C1334       C  0.52716702  0.26929131  0.67396592    -0.18900
C1335       C  0.50357700  0.32320389  0.67290951    -0.20700
C1336       C  0.47749822  0.34368019  0.67861625    -0.13300
C1337       C  0.44965988  0.33215971  0.69384245     0.03400
C1338       C  0.44919458  0.29993465  0.70485625    -0.25400
H1339       H  0.49656698  0.20015098  0.70587100     0.08500
H1340       H  0.45420348  0.23756086  0.72243196     0.12100
H1341       H  0.54662255  0.27768429  0.65881789     0.12000
H1342       H  0.52420406  0.33249494  0.66004440     0.11800
H1343       H  0.47864398  0.36825612  0.66998215     0.12300
H1344       H  0.42805339  0.29070573  0.71692925     0.14200
C1345       C  0.54546769  0.07814751  0.70096413    -0.05800
C1346       C  0.52624012  0.05090006  0.69484577    -0.05700
C1347       C  0.52928896  0.02286695  0.71299634    -0.23900
C1348       C  0.55110763  0.02154620  0.73830742     0.18300
C1349       C  0.56848450  0.04957807  0.74680715     0.15600
C1350       C  0.56601644  0.07765873  0.72771812    -0.18900
C1351       C  0.58933522  0.04824410  0.77311322    -0.20700
C1352       C  0.59500859  0.01888906  0.78878668    -0.13300
C1353       C  0.58054561  0.99024758  0.77803523     0.03400
C1354       C  0.55750390  0.99206489  0.75366582    -0.25400
H1355       H  0.51017043  0.05043207  0.67452934     0.08500
H1356       H  0.51544411  0.00178278  0.70639364     0.12100
H1357       H  0.58078991  0.09851064  0.73293492     0.12000
H1358       H  0.60257352  0.06946544  0.78046132     0.11800
H1359       H  0.61314701  0.01801334  0.80722922     0.12300
H1360       H  0.54654347  0.97006878  0.74490278     0.14200
C1361       C  0.60877946  0.22422793  0.56503229    -0.05800
C1362       C  0.64212403  0.22432953  0.56908623    -0.05700
C1363       C  0.66144824  0.24407690  0.54996427    -0.23900
C1364       C  0.64756712  0.26439731  0.52701443     0.18300
C1365       C  0.61393072  0.26525651  0.52353448     0.15600
C1366       C  0.59481200  0.24489256  0.54230870    -0.18900
C1367       C  0.60004383  0.28635903  0.50124744    -0.20700
C1368       C  0.61943962  0.30602561  0.48204263    -0.13300
C1369       C  0.65287992  0.30428526  0.48452252     0.03400
C1370       C  0.66677100  0.28368255  0.50729537    -0.25400
H1371       H  0.65323338  0.20866085  0.58654528     0.08500
H1372       H  0.68722734  0.24338049  0.55302631     0.12100
H1373       H  0.56898290  0.24533520  0.53944354     0.12000
H1374       H  0.57424293  0.28745461  0.49851553     0.11800
H1375       H  0.60842502  0.32181973  0.46463552     0.12300
H1376       H  0.69264216  0.28267188  0.50964461     0.14200
C1377       C  0.61413936  0.07925574  0.58158666    -0.05800
C1378       C  0.64596478  0.07020760  0.58753160    -0.05700
C1379       C  0.65978254  0.04446470  0.57039089    -0.23900
C1380       C  0.64194146  0.02760352  0.54708959     0.18300
C1381       C  0.61054982  0.03794070  0.54003781     0.15600
C1382       C  0.59706144  0.06348126  0.55719331    -0.18900
C1383       C  0.59242094  0.02173603  0.51689075    -0.20700
C1384       C  0.60462596  0.99452261  0.50165548    -0.13300
C1385       C  0.63523312  0.98275522  0.50922895     0.03400
C1386       C  0.65417912  0.99996183  0.53157296    -0.25400
H1387       H  0.65943994  0.08180020  0.60643072     0.08500
H1388       H  0.68399110  0.03705966  0.57609596     0.12100
H1389       H  0.57242569  0.07021113  0.55251717     0.12000
H1390       H  0.56834586  0.02960855  0.51116872     0.11800
H1391       H  0.58952190  0.98201688  0.48464449     0.12300
H1392       H  0.67786871  0.99127703  0.53768408     0.14200
C1393       C  0.44138464  0.10575717  0.41745489    -0.05800
C1394       C  0.42402565  0.12953143  0.43389948    -0.05700
C1395       C  0.43677633  0.14374493  0.46152098    -0.23900
C1396       C  0.46672837  0.13386243  0.47326591     0.18300
C1397       C  0.48517705  0.11169460  0.45544548     0.15600
C1398       C  0.47278492  0.09859786  0.42725613    -0.18900
C1399       C  0.51461075  0.10087851  0.46736762    -0.20700
C1400       C  0.52473825  0.11019744  0.49774676    -0.13300
C1401       C  0.50601732  0.13111838  0.51632404     0.03400
C1402       C  0.47762468  0.14397288  0.50342424    -0.25400
H1403       H  0.39975111  0.13534136  0.42685869     0.08500
H1404       H  0.42235927  0.16085051  0.47478983     0.12100
H1405       H  0.48649647  0.08046311  0.41455513     0.12000
H1406       H  0.52904284  0.08395891  0.45387676     0.11800
H1407       H  0.54691092  0.10047138  0.50701674     0.12300
H1408       H  0.46300718  0.16012426  0.51765831     0.14200
C1409       C  0.23168275  0.07540362  0.50870474    -0.05800
C1410       C  0.22166294  0.08985354  0.47990280    -0.05700
C1411       C  0.23877947  0.08496552  0.45113134    -0.23900
C1412       C  0.26639399  0.06553813  0.45054612     0.18300
C1413       C  0.27468764  0.04868443  0.47879293     0.15600
C1414       C  0.25740349  0.05366004  0.50743584    -0.18900
C1415       C  0.30173448  0.02895713  0.47877820    -0.20700
C1416       C  0.32184856  0.02776497  0.45212038    -0.13300
C1417       C  0.31589221  0.04636270  0.42450223     0.03400
C1418       C  0.28705753  0.06424433  0.42328180    -0.25400
H1419       H  0.20250751  0.10741836  0.48026309     0.08500
H1420       H  0.23159585  0.09800953  0.42987597     0.12100
H1421       H  0.26587592  0.04293542  0.52951511     0.12000
H1422       H  0.30821868  0.01546460  0.49999744     0.11800
H1423       H  0.34321577  0.01308466  0.45375067     0.12300
H1424       H  0.28181753  0.07860377  0.40229010     0.14200
C1425       C  0.20399520  0.06085728  0.67457985    -0.05800
C1426       C  0.22088414  0.06862385  0.70275218    -0.05700
C1427       C  0.21824186  0.04984374  0.73026907    -0.23900
C1428       C  0.19884342  0.02239204  0.73047021     0.18300
C1429       C  0.18406309  0.01219292  0.70171481     0.15600
C1430       C  0.18672807  0.03152973  0.67368574    -0.18900
C1431       C  0.16526893  0.98400726  0.70234537    -0.20700
C1432       C  0.15909309  0.96795863  0.73143847    -0.13300
C1433       C  0.17136677  0.97987520  0.76048978     0.03400
C1434       C  0.19228630  0.00639971  0.75951573    -0.25400
H1435       H  0.23509493  0.09046211  0.70410083     0.08500
H1436       H  0.23027478  0.05768601  0.75187413     0.12100
H1437       H  0.17376216  0.02494400  0.65221473     0.12000
H1438       H  0.15390845  0.97537615  0.68068621     0.11800
H1439       H  0.14244808  0.94788463  0.73158584     0.12300
H1440       H  0.20163135  0.01599638  0.78176736     0.14200
C1441       C  0.15610713  0.18248457  0.51794659    -0.05800
C1442       C  0.12264675  0.17840053  0.51738085    -0.05700
C1443       C  0.10367554  0.19692183  0.49698934    -0.23900
C1444       C  0.11777318  0.22028710  0.47720585     0.18300
C1445       C  0.15141377  0.22453921  0.47749322     0.15600
C1446       C  0.17040224  0.20533126  0.49754275    -0.18900
C1447       C  0.16541216  0.24840876  0.45823206    -0.20700
C1448       C  0.14624464  0.26821437  0.43922879    -0.13300
C1449       C  0.11275149  0.26427375  0.43882825     0.03400
C1450       C  0.09872421  0.23991518  0.45766451    -0.25400
H1451       H  0.11110612  0.16086233  0.53280216     0.08500
H1452       H  0.07793098  0.19333966  0.49709262     0.12100
H1453       H  0.19615801  0.20888374  0.49801868     0.12000
H1454       H  0.19114288  0.25206821  0.45819990     0.11800
H1455       H  0.15767537  0.28674053  0.42491433     0.12300
H1456       H  0.07291984  0.23670045  0.45773311     0.14200
C1457       C  0.10900987  0.24474627  0.76542134    -0.05800
C1458       C  0.12875538  0.26491765  0.74703701    -0.05700
C1459       C  0.13991299  0.25492400  0.71709765    -0.23900
C1460       C  0.13186361  0.22431257  0.70531316     0.18300
C1461       C  0.11090657  0.20426785  0.72304748     0.15600
C1462       C  0.09941614  0.21473203  0.75305057    -0.18900
C1463       C  0.10335313  0.17347256  0.71123611    -0.20700
C1464       C  0.11824234  0.16178387  0.68341448    -0.13300
C1465       C  0.14073030  0.18080005  0.66683373     0.03400
C1466       C  0.14616127  0.21265525  0.67718531    -0.25400
H1467       H  0.13646575  0.28796257  0.75639247     0.08500
H1468       H  0.15594868  0.27058881  0.70379053     0.12100
H1469       H  0.08442896  0.19898689  0.76744546     0.12000
H1470       H  0.08719698  0.15781613  0.72438383     0.11800
H1471       H  0.11374946  0.13716245  0.67611632     0.12300
H1472       H  0.16334600  0.22769316  0.66457967     0.14200
C1473       C  0.32067461  0.12527148  0.62612709    -0.05800
C1474       C  0.33686304  0.09744493  0.61675410    -0.05700
C1475       C  0.37000563  0.09593228  0.62002649    -0.23900
C1476       C  0.38695006  0.12289876  0.63119338     0.18300
C1477       C  0.37040009  0.15048194  0.64197511     0.15600
C1478       C  0.33704849  0.15087684  0.64054044    -0.18900
C1479       C  0.38753411  0.17804606  0.65134947    -0.20700
C1480       C  0.42079160  0.17914240  0.64747293    -0.13300
C1481       C  0.43703680  0.15229965  0.63514471     0.03400
C1482       C  0.42013150  0.12366905  0.62902356    -0.25400
H1483       H  0.32408353  0.07767521  0.60561855     0.08500
H1484       H  0.38253185  0.07468591  0.61168066     0.12100
H1485       H  0.32399260  0.17210913  0.64811498     0.12000
H1486       H  0.37508146  0.19934277  0.65968803     0.11800
H1487       H  0.43353887  0.20125961  0.65280410     0.12300
H1488       H  0.43247029  0.10258427  0.61997271     0.14200
C1489       C  0.32825732  0.34151854  0.62763968    -0.05800
C1490       C  0.29666919  0.34862352  0.61850218    -0.05700
C1491       C  0.27660703  0.32454883  0.60623475    -0.23900
C1492       C  0.28759784  0.29275226  0.60386803     0.18300
C1493       C  0.32025772  0.28610533  0.61037424     0.15600
C1494       C  0.34054943  0.31073193  0.62148233    -0.18900
C1495       C  0.33130663  0.25435968  0.60869713    -0.20700
C1496       C  0.30979454  0.22923635  0.60318916    -0.13300
C1497       C  0.27694988  0.23525772  0.59923521     0.03400
C1498       C  0.26605962  0.26717124  0.59796449    -0.25400
H1499       H  0.28658034  0.37203814  0.62381677     0.08500
H1500       H  0.25178940  0.33024832  0.60121793     0.12100
H1501       H  0.36459383  0.30486496  0.62941648     0.12000
H1502       H  0.35625833  0.24876776  0.61325466     0.11800
H1503       H  0.31865316  0.20480499  0.60299201     0.12300
H1504       H  0.24071659  0.27188290  0.59479911     0.14200
C1505       C  0.08258280  0.50114614  0.22635861    -0.05800
C1506       C  0.05905138  0.51064200  0.24850390    -0.05700
C1507       C  0.04798100  0.48901294  0.27203367    -0.23900
C1508       C  0.06028721  0.45750639  0.27383839     0.18300
C1509       C  0.08189409  0.44696844  0.25002297     0.15600
C1510       C  0.09269130  0.46871144  0.22643019    -0.18900
C1511       C  0.09403893  0.41548712  0.25141690    -0.20700
C1512       C  0.08634038  0.39518281  0.27711600    -0.13300
C1513       C  0.06657332  0.40594246  0.30220255     0.03400
C1514       C  0.05284085  0.43698219  0.29987032    -0.25400
H1515       H  0.05125804  0.53548875  0.24937412     0.08500
H1516       H  0.03114105  0.49749563  0.28989228     0.12100
H1517       H  0.11097303  0.46107386  0.20958715     0.12000
H1518       H  0.11048635  0.40694253  0.23321482     0.11800
H1519       H  0.09720573  0.37154244  0.27813481     0.12300
H1520       H  0.03731720  0.44558183  0.31884796     0.14200
C1521       C  0.06086210  0.65948385  0.21105248    -0.05800
C1522       C  0.06600673  0.68632646  0.23103809    -0.05700
C1523       C  0.04651841  0.71365097  0.22910323    -0.23900
C1524       C  0.02083193  0.71471318  0.20757472     0.18300
C1525       C  0.01351567  0.68706000  0.18923227     0.15600
C1526       C  0.03384122  0.65972021  0.19069713    -0.18900
C1527       C  0.98715323  0.68813039  0.16834378    -0.20700
C1528       C  0.97030967  0.71702882  0.16345868    -0.13300
C1529       C  0.97956819  0.74554257  0.17911535     0.03400
C1530       C  0.00397495  0.74370324  0.20232584    -0.25400
H1531       H  0.08646404  0.68706323  0.24693800     0.08500
H1532       H  0.05234799  0.73447244  0.24361773     0.12100
H1533       H  0.02933126  0.63924809  0.17526030     0.12000
H1534       H  0.98080412  0.66717353  0.15426357     0.11800
H1535       H  0.95231358  0.71787300  0.14482869     0.12300
H1536       H  0.01191849  0.76561536  0.21402909     0.14200
C1537       C  0.19599892  0.51703046  0.13719613    -0.05800
C1538       C  0.18141608  0.50368300  0.10987177    -0.05700
C1539       C  0.19820951  0.48203183  0.09018549    -0.23900
C1540       C  0.22981303  0.47307775  0.09761636     0.18300
C1541       C  0.24475524  0.48696909  0.12464365     0.15600
C1542       C  0.22801017  0.50894018  0.14388171    -0.18900
C1543       C  0.27602952  0.47806997  0.13267551    -0.20700
C1544       C  0.29218224  0.45494711  0.11472905    -0.13300
C1545       C  0.27771359  0.44040811  0.08799866     0.03400
C1546       C  0.24657207  0.45007351  0.07910216    -0.25400
H1547       H  0.15680006  0.50943568  0.10408495     0.08500
H1548       H  0.18624106  0.47176778  0.06957593     0.12100
H1549       H  0.23974157  0.51899010  0.16475055     0.12000
H1550       H  0.28787269  0.48862455  0.15322039     0.11800
H1551       H  0.31629284  0.44848574  0.12179953     0.12300
H1552       H  0.23517624  0.43916019  0.05848345     0.14200
C1553       C  0.25907285  0.75482691  0.12574477    -0.05800
C1554       C  0.26290069  0.74483541  0.15761325    -0.05700
C1555       C  0.24608677  0.71824139  0.16931621    -0.23900
C1556       C  0.22528588  0.70099305  0.14931291     0.18300
C1557       C  0.22291186  0.70903982  0.11662655     0.15600
C1558       C  0.23991319  0.73601546  0.10496617    -0.18900
C1559       C  0.20228712  0.69093045  0.09681056    -0.20700
C1560       C  0.18287313  0.66634052  0.10978951    -0.13300
C1561       C  0.18365637  0.65999039  0.14274932     0.03400
C1562       C  0.20564093  0.67686747  0.16201210    -0.25400
H1563       H  0.27750146  0.75865984  0.17406436     0.08500
H1564       H  0.24837636  0.71194511  0.19438617     0.12100
H1565       H  0.23693823  0.74328331  0.08023700     0.12000
H1566       H  0.20038463  0.69650641  0.07155783     0.11800
H1567       H  0.16620773  0.65357223  0.09451467     0.12300
H1568       H  0.20655365  0.67216880  0.18747503     0.14200
C1569       C  0.34685538  0.63526410  0.31208405    -0.05800
C1570       C  0.33129511  0.60973151  0.32782277    -0.05700
C1571       C  0.30404063  0.59535294  0.31423641    -0.23900
C1572       C  0.29173738  0.60669131  0.28500923     0.18300
C1573       C  0.30850135  0.63097212  0.26816659     0.15600
C1574       C  0.33627228  0.64442876  0.28140787    -0.18900
C1575       C  0.29600563  0.64312793  0.23947171    -0.20700
C1576       C  0.26610090  0.63280877  0.22853143    -0.13300
C1577       C  0.24853523  0.60958189  0.24563852     0.03400
C1578       C  0.26207311  0.59568172  0.27327460    -0.25400
H1579       H  0.33883364  0.60240093  0.35150632     0.08500
H1580       H  0.29155025  0.57666503  0.32745362     0.12100
H1581       H  0.34822290  0.66397390  0.26889019     0.12000
H1582       H  0.30867915  0.66170112  0.22624876     0.11800
H1583       H  0.25639054  0.64348986  0.20700545     0.12300
H1584       H  0.24864152  0.57781569  0.28672623     0.14200
C1585       C  0.25249911  0.66867278  0.51469185    -0.05800
C1586       C  0.24603003  0.69372185  0.49309828    -0.05700
C1587       C  0.26936497  0.70423962  0.47131151    -0.23900
C1588       C  0.29954957  0.68942371  0.47019770     0.18300
C1589       C  0.30721874  0.66559237  0.49303822     0.15600
C1590       C  0.28369002  0.65555423  0.51539298    -0.18900
C1591       C  0.33745884  0.65068323  0.49154589    -0.20700
C1592       C  0.35916091  0.65816337  0.46679201    -0.13300
C1593       C  0.35095348  0.68049071  0.44289827     0.03400
C1594       C  0.32135768  0.69667687  0.44541778    -0.25400
H1595       H  0.22197662  0.70332732  0.49128897     0.08500
H1596       H  0.26307754  0.72255722  0.45397002     0.12100
H1597       H  0.28858054  0.63532552  0.53104179     0.12000
H1598       H  0.34389040  0.63240907  0.50887219     0.11800
H1599       H  0.38173680  0.64540483  0.46551964     0.12300
H1600       H  0.31476984  0.71419709  0.42736199     0.14200
C1601       C  0.00013269  0.75874336  0.58559763    -0.05800
C1602       C  0.99358200  0.73877292  0.55928511    -0.05700
C1603       C  0.01719390  0.71846849  0.54652331    -0.23900
C1604       C  0.04790541  0.71716637  0.56016714     0.18300
C1605       C  0.05557332  0.73836480  0.58547346     0.15600
C1606       C  0.03163592  0.75908112  0.59804077    -0.18900
C1607       C  0.08641871  0.73690743  0.59899443    -0.20700
C1608       C  0.10870969  0.71364452  0.58876418    -0.13300
C1609       C  0.10063299  0.69104033  0.56499492     0.03400
C1610       C  0.07033093  0.69371884  0.55018687    -0.25400
H1611       H  0.96941413  0.73723961  0.54996571     0.08500
H1612       H  0.01085039  0.70245336  0.52707009     0.12100
H1613       H  0.03676240  0.77347550  0.61906589     0.12000
H1614       H  0.09293700  0.75301946  0.61831364     0.11800
H1615       H  0.13169118  0.71226409  0.60067693     0.12300
H1616       H  0.06367610  0.67667244  0.53170441     0.14200
C1617       C  0.24937126  0.55321114  0.59246061    -0.05800
C1618       C  0.27179184  0.53616380  0.57378713    -0.05700
C1619       C  0.29328032  0.51468384  0.58785549    -0.23900
C1620       C  0.29314365  0.50992663  0.62103095     0.18300
C1621       C  0.27109240  0.52715152  0.64023836     0.15600
C1622       C  0.24913727  0.54846188  0.62583872    -0.18900
C1623       C  0.27142133  0.52271120  0.67351450    -0.20700
C1624       C  0.29322284  0.50140979  0.68755745    -0.13300
C1625       C  0.31489224  0.48373570  0.66863165     0.03400
C1626       C  0.31464202  0.48816049  0.63525871    -0.25400
H1627       H  0.27249905  0.53910002  0.54803548     0.08500
H1628       H  0.31001661  0.50176676  0.57273217     0.12100
H1629       H  0.23206669  0.56140101  0.64057199     0.12000
H1630       H  0.25477525  0.53566222  0.68869906     0.11800
H1631       H  0.29266275  0.49826718  0.71328953     0.12300
H1632       H  0.33121630  0.47475009  0.62036495     0.14200
C1633       C  0.00371297  0.49680816  0.64538653    -0.05800
C1634       C  0.02373766  0.47776518  0.62627854    -0.05700
C1635       C  0.05406912  0.48891820  0.61732470    -0.23900
C1636       C  0.06437140  0.51975094  0.62653956     0.18300
C1637       C  0.04489003  0.53874669  0.64677140     0.15600
C1638       C  0.01472462  0.52686041  0.65651415    -0.18900
C1639       C  0.05497730  0.57009878  0.65482221    -0.20700
C1640       C  0.08253027  0.58349710  0.64060550    -0.13300
C1641       C  0.10060762  0.56544515  0.61866593     0.03400
C1642       C  0.09244525  0.53291550  0.61348273    -0.25400
H1643       H  0.01536978  0.45477094  0.61730604     0.08500
H1644       H  0.06872562  0.47415702  0.60167841     0.12100
H1645       H  0.99894091  0.54181832  0.67082288     0.12000
H1646       H  0.04039277  0.58500661  0.67037178     0.11800
H1647       H  0.08811427  0.60864476  0.64467136     0.12300
H1648       H  0.10629539  0.51875645  0.59655265     0.14200
C1649       C  0.13796782  0.60936861  0.43328008    -0.05800
C1650       C  0.13364008  0.63852815  0.41710641    -0.05700
C1651       C  0.13002772  0.63849885  0.38386556    -0.23900
C1652       C  0.13074769  0.60929816  0.36687253     0.18300
C1653       C  0.13288252  0.57979533  0.38355405     0.15600
C1654       C  0.13626599  0.58009026  0.41668926    -0.18900
C1655       C  0.13362748  0.55060415  0.36670739    -0.20700
C1656       C  0.13472458  0.55072379  0.33335728    -0.13300
C1657       C  0.13498139  0.58003876  0.31666988     0.03400
C1658       C  0.13143035  0.60915564  0.33349228    -0.25400
H1659       H  0.13484861  0.66119098  0.42988004     0.08500
H1660       H  0.12817096  0.66128230  0.37134111     0.12100
H1661       H  0.13920820  0.55755930  0.42952069     0.12000
H1662       H  0.13495131  0.52781967  0.37932207     0.11800
H1663       H  0.13715981  0.52806444  0.32076214     0.12300
H1664       H  0.13103501  0.63188292  0.32068117     0.14200
C1665       C  0.12892370  0.40883327  0.42588079    -0.05800
C1666       C  0.14765892  0.43000461  0.40751222    -0.05700
C1667       C  0.16119138  0.45733994  0.42179608    -0.23900
C1668       C  0.15542399  0.46390031  0.45431595     0.18300
C1669       C  0.13891475  0.44106997  0.47334795     0.15600
C1670       C  0.12684806  0.41316520  0.45916604    -0.18900
C1671       C  0.13183561  0.44795553  0.50548103    -0.20700
C1672       C  0.13904626  0.47820436  0.51809273    -0.13300
C1673       C  0.15424385  0.50133238  0.49898082     0.03400
C1674       C  0.16349473  0.49383914  0.46754011    -0.25400
H1675       H  0.14925789  0.42711358  0.38179323     0.08500
H1676       H  0.17391607  0.47456242  0.40693358     0.12100
H1677       H  0.11241029  0.39669797  0.47337931     0.12000
H1678       H  0.11908172  0.43067152  0.52025293     0.11800
H1679       H  0.13185242  0.48395234  0.54236413     0.12300
H1680       H  0.17507687  0.51203890  0.45285935     0.14200
loop_ 
_geom_bond_atom_site_label_1 
_geom_bond_atom_site_label_2 
_geom_bond_distance 
_geom_bond_site_symmetry_2 
_ccdc_geom_bond_type 
O1          Cr19   1.992       .  S
O1            C9   1.262       .  A
O2          Cr19   1.944       .  S
O2            C3   1.254       .  A
C3            O4   1.281       .  A
C3         C1585   1.479       .  S
O4          Cr20   2.070       .  S
O5          Cr20   2.009       .  S
O5            C6   1.269       .  A
C6            O7   1.267       .  A
C6         C1609   1.502       .  S
O7          Cr21   2.013       .  S
O8          Cr21   1.976       .  S
O8            C9   1.257       .  A
C9         C1649   1.455       .  S
O10         Cr19   1.965       .  S
O10          C18   1.256       .  A
O11         Cr19   1.997       .  S
O11          C12   1.261       .  A
C12          O13   1.262       .  A
C12        C1617   1.489       .  S
O13         Cr20   2.001       .  S
O14         Cr20   2.051       .  S
O14          C15   1.276       .  A
C15          O16   1.254       .  A
C15        C1641   1.481       .  S
O16         Cr21   1.942       .  S
O17         Cr21   2.018       .  S
O17          C18   1.268       .  A
C18        C1673   1.457       .  S
Cr19         O22   1.766       .  S
Cr20         O22   1.776       .  S
Cr21         O22   1.763       .  S
O23         Cr41   1.977       .  S
O23          C31   1.262       .  A
O24         Cr41   1.990       .  S
O24          C25   1.259       .  A
C25          O26   1.273       .  A
C25        C1505   1.490       .  S
O26         Cr42   2.034       .  S
O27         Cr42   2.045       .  S
O27          C28   1.273       .  A
C28          O29   1.262       .  A
C28        C1521   1.501       .  S
O29         Cr43   1.980       .  S
O30         Cr43   1.983       .  S
O30          C31   1.264       .  A
C31        C1657   1.466       .  S
O32         Cr41   2.006       .  S
O32          C40   1.261       .  A
O33         Cr41   1.972       .  S
O33          C34   1.263       .  A
C34          O35   1.274       .  A
C34        C1537   1.490       .  S
O35         Cr42   2.038       .  S
O36         Cr42   2.023       .  S
O36          C37   1.269       .  A
C37          O38   1.259       .  A
C37        C1561   1.481       .  S
O38         Cr43   1.975       .  S
O39         Cr43   1.987       .  S
O39          C40   1.260       .  A
C40        C1577   1.480       .  S
Cr41         O44   1.769       .  S
Cr42         O44   1.771       .  S
Cr43         O44   1.760       .  S
O45         Cr63   2.007       .  S
O45          C53   1.269       .  A
O46         Cr63   1.957       .  S
O46          C47   1.250       .  A
C47          O48   1.274       .  A
C47        C1409   1.490       .  S
O48         Cr64   2.066       .  S
O49         Cr64   2.030       .  S
O49          C50   1.272       .  A
C50          O51   1.265       .  A
C50        C1425   1.499       .  S
O51         Cr65   1.994       .  S
O52         Cr65   1.954       .  S
O52          C53   1.255       .  A
C53        C1473   1.443       .  S
O54         Cr63   1.986       .  S
O54          C62   1.255       .  A
O55         Cr63   2.014       .  S
O55          C56   1.270       .  A
C56          O57   1.263       .  A
C56        C1441   1.478       .  S
O57         Cr64   1.970       .  S
O58         Cr64   2.056       .  S
O58          C59   1.280       .  A
C59          O60   1.259       .  A
C59        C1465   1.486       .  S
O60         Cr65   1.958       .  S
O61         Cr65   2.008       .  S
O61          C62   1.262       .  A
C62        C1497   1.473       .  S
Cr63         O66   1.764       .  S
Cr64         O66   1.778       .  S
Cr65         O66   1.758       .  S
O67         Cr85   1.980       .  S
O67          C75   1.261       .  A
O68         Cr85   1.982       .  S
O68          C69   1.254       .  A
C69          O70   1.271       .  A
C69        C1329   1.484       .  S
O70         Cr86   2.037       .  S
O71         Cr86   2.041       .  S
O71          C72   1.272       .  A
C72          O73   1.259       .  A
C72        C1345   1.491       .  S
O73         Cr87   1.968       .  S
O74         Cr87   1.976       .  S
O74          C75   1.263       .  A
C75        C1481   1.465       .  S
O76         Cr85   2.005       .  S
O76          C84   1.262       .  A
O77         Cr85   1.952       .  S
O77          C78   1.260       .  A
C78          O79   1.276       .  A
C78        C1361   1.472       .  S
O79         Cr86   2.034       .  S
O80         Cr86   2.024       .  S
O80          C81   1.269       .  A
C81          O82   1.259       .  A
C81        C1377   1.482       .  S
O82         Cr87   1.977       .  S
O83         Cr87   1.981       .  S
O83          C84   1.260       .  A
C84        C1401   1.474       .  S
Cr85         O88   1.770       .  S
Cr86         O88   1.767       .  S
Cr87         O88   1.752       .  S
O89        Cr107   1.999       .  S
O89          C97   1.264       .  A
O90        Cr107   1.971       .  S
O90          C91   1.256       .  A
C91          O92   1.273       .  A
C91        C1241   1.482       .  S
O92        Cr108   2.048       .  S
O93        Cr108   1.983       .  S
O93          C94   1.266       .  A
C94          O95   1.271       .  A
C94        C1257   1.490       .  S
O95        Cr109   2.026       .  S
O96        Cr109   1.962       .  S
O96          C97   1.252       .  A
C97        C1297   1.451       .  S
O98        Cr107   1.973       .  S
O98         C106   1.258       .  A
O99        Cr107   2.013       .  S
O99         C100   1.269       .  A
C100        O101   1.263       .  A
C100       C1265   1.478       .  S
O101       Cr108   1.971       .  S
O102       Cr108   2.048       .  S
O102        C103   1.272       .  A
C103        O104   1.252       .  A
C103       C1289   1.482       .  S
O104       Cr109   1.951       .  S
O105       Cr109   2.019       .  S
O105        C106   1.269       .  A
C106       C1321   1.470       .  S
Cr107       O110   1.768       .  S
Cr108       O110   1.772       .  S
Cr109       O110   1.760       .  S
O111       Cr129   2.004       .  S
O111        C119   1.272       .  A
O112       Cr129   1.952       .  S
O112        C113   1.251       .  A
C113        O114   1.273       .  A
C113       C1161   1.482       .  S
O114       Cr130   2.055       .  S
O115       Cr130   2.020       .  S
O115        C116   1.270       .  A
C116        O117   1.261       .  A
C116       C1177   1.495       .  S
O117       Cr131   1.995       .  S
O118       Cr131   1.957       .  S
O118        C119   1.256       .  A
C119       C1305   1.458       .  S
O120       Cr129   1.990       .  S
O120        C128   1.257       .  A
O121       Cr129   2.012       .  S
O121        C122   1.268       .  A
C122        O123   1.264       .  A
C122       C1193   1.486       .  S
O123       Cr130   1.983       .  S
O124       Cr130   2.049       .  S
O124        C125   1.278       .  A
C125        O126   1.258       .  A
C125       C1209   1.478       .  S
O126       Cr131   1.945       .  S
O127       Cr131   2.005       .  S
O127        C128   1.262       .  A
C128       C1217   1.478       .  S
Cr129       O132   1.759       .  S
Cr130       O132   1.774       .  S
Cr131       O132   1.764       .  S
O133       Cr151   1.961       .  S
O133        C141   1.258       .  A
O134       Cr151   1.989       .  S
O134        C135   1.257       .  A
C135        O136   1.272       .  A
C135       C1073   1.489       .  S
O136       Cr152   2.037       .  S
O137       Cr152   2.039       .  S
O137        C138   1.270       .  A
C138        O139   1.258       .  A
C138       C1089   1.498       .  S
O139       Cr153   1.971       .  S
O140       Cr153   1.981       .  S
O140        C141   1.265       .  A
C141       C1145   1.458       .  S
O142       Cr151   2.015       .  S
O142        C150   1.263       .  A
O143       Cr151   1.953       .  S
O143        C144   1.261       .  A
C144        O145   1.273       .  A
C144       C1113   1.461       .  S
O145       Cr152   2.017       .  S
O146       Cr152   2.013       .  S
O146        C147   1.267       .  A
C147        O148   1.263       .  A
C147       C1121   1.479       .  S
O148       Cr153   1.984       .  S
O149       Cr153   1.987       .  S
O149        C150   1.262       .  A
C150       C1385   1.491       .  S
Cr151       O154   1.771       .  S
Cr152       O154   1.768       .  S
Cr153       O154   1.758       .  S
O155       Cr173   1.991       .  S
O155        C163   1.263       .  A
O156       Cr173   1.963       .  S
O156        C157   1.255       .  A
C157        O158   1.275       .  A
C157       C1353   1.481       .  S
O158       Cr174   2.056       .  S
O159       Cr174   2.019       .  S
O159        C160   1.270       .  A
C160        O161   1.265       .  A
C160       C1009   1.492       .  S
O161       Cr175   1.991       .  S
O162       Cr175   1.954       .  S
O162        C163   1.251       .  A
C163       C1137   1.436       .  S
O164       Cr173   1.990       .  S
O164        C172   1.260       .  A
O165       Cr173   1.997       .  S
O165        C166   1.263       .  A
C166        O167   1.266       .  A
C166       C1025   1.466       .  S
O167       Cr174   1.986       .  S
O168       Cr174   2.061       .  S
O168        C169   1.277       .  A
C169        O170   1.254       .  A
C169       C1049   1.490       .  S
O170       Cr175   1.948       .  S
O171       Cr175   2.004       .  S
O171        C172   1.263       .  A
C172       C1057   1.468       .  S
Cr173       O176   1.762       .  S
Cr174       O176   1.770       .  S
Cr175       O176   1.749       .  S
O177       Cr195   1.973       .  S
O177        C185   1.261       .  A
O178       Cr195   1.985       .  S
O178        C179   1.255       .  A
C179        O180   1.272       .  A
C179        C937   1.490       .  S
O180       Cr196   2.041       .  S
O181       Cr196   2.042       .  S
O181        C182   1.271       .  A
C182        O183   1.258       .  A
C182        C945   1.498       .  S
O183       Cr197   1.970       .  S
O184       Cr197   1.972       .  S
O184        C185   1.262       .  A
C185        C993   1.459       .  S
O186       Cr195   2.005       .  S
O186        C194   1.261       .  A
O187       Cr195   1.953       .  S
O187        C188   1.262       .  A
C188        O189   1.275       .  A
C188        C961   1.469       .  S
O189       Cr196   2.030       .  S
O190       Cr196   2.009       .  S
O190        C191   1.267       .  A
C191        O192   1.259       .  A
C191        C977   1.469       .  S
O192       Cr197   1.975       .  S
O193       Cr197   1.988       .  S
O193        C194   1.261       .  A
C194       C1553   1.485       .  S
Cr195       O198   1.770       .  S
Cr196       O198   1.771       .  S
Cr197       O198   1.759       .  S
O199       Cr217   2.006   1_455  S
O199        C207   1.269       .  A
O200       Cr217   1.951       .  S
O200        C201   1.250       .  A
C201        O202   1.278       .  A
C201       C1529   1.487       .  S
O202       Cr218   2.070       .  S
O203       Cr218   2.000       .  S
O203        C204   1.268       .  A
C204        O205   1.266       .  A
C204        C873   1.493       .  S
O205       Cr219   2.012       .  S
O206       Cr219   1.949   1_455  S
O206        C207   1.252       .  A
C207       C1001   1.437       .  S
O208       Cr217   1.984       .  S
O208        C216   1.256   1_655  A
O209       Cr217   2.023       .  S
O209        C210   1.269       .  A
C210        O211   1.257       .  A
C210        C889   1.483       .  S
O211       Cr218   1.959       .  S
O212       Cr218   2.052       .  S
O212        C213   1.279       .  A
C213        O214   1.256       .  A
C213        C897   1.478       .  S
O214       Cr219   1.940       .  S
O215       Cr219   2.024   1_455  S
O215        C216   1.266       .  A
C216        C921   1.475       .  S
Cr217       O220   1.761       .  S
Cr218       O220   1.766       .  S
Cr219       O220   1.757       .  S
O221       Cr239   2.001   1_565  S
O221        C229   1.268       .  A
O222       Cr239   1.962       .  S
O222        C223   1.251       .  A
C223        O224   1.272       .  A
C223        C953   1.483       .  S
O224       Cr240   2.051       .  S
O225       Cr240   2.042       .  S
O225        C226   1.274       .  A
C226        O227   1.264       .  A
C226       C1417   1.505       .  S
O227       Cr241   1.994       .  S
O228       Cr241   1.960   1_565  S
O228        C229   1.257       .  A
C229        C849   1.448       .  S
O230       Cr239   1.996       .  S
O230        C238   1.257   1_545  A
O231       Cr239   2.006       .  S
O231        C232   1.269       .  A
C232        O233   1.267       .  A
C232       C1185   1.490       .  S
O233       Cr240   1.995       .  S
O234       Cr240   2.044       .  S
O234        C235   1.276       .  A
C235        O236   1.259       .  A
C235       C1393   1.477       .  S
O236       Cr241   1.953       .  S
O237       Cr241   2.003   1_565  S
O237        C238   1.261       .  A
C238       C1129   1.477       .  S
Cr239       O242   1.762       .  S
Cr240       O242   1.780       .  S
Cr241       O242   1.759       .  S
O243       Cr261   1.997       .  S
O243        C251   1.266       .  A
O244       Cr261   1.958       .  S
O244        C245   1.252       .  A
C245        O246   1.273       .  A
C245       C1097   1.480       .  S
O246       Cr262   2.055       .  S
O247       Cr262   2.006       .  S
O247        C248   1.268       .  A
C248        O249   1.266       .  A
C248       C1593   1.493       .  S
O249       Cr263   2.006       .  S
O250       Cr263   1.957       .  S
O250        C251   1.254       .  A
C251        C857   1.448       .  S
O252       Cr261   1.978       .  S
O252        C260   1.257       .  A
O253       Cr261   2.006       .  S
O253        C254   1.268       .  A
C254        O255   1.262       .  A
C254       C1273   1.473       .  S
O255       Cr262   1.975       .  S
O256       Cr262   2.052       .  S
O256        C257   1.276       .  A
C257        O258   1.255       .  A
C257       C1569   1.482       .  S
O258       Cr263   1.949       .  S
O259       Cr263   2.009       .  S
O259        C260   1.264       .  A
C260        C985   1.470       .  S
Cr261       O264   1.765       .  S
Cr262       O264   1.778       .  S
Cr263       O264   1.762       .  S
O265       Cr283   1.995       .  S
O265        C273   1.265       .  A
O266       Cr283   1.961       .  S
O266        C267   1.255       .  A
C267        O268   1.272       .  A
C267       C1017   1.478       .  S
O268       Cr284   2.047       .  S
O269       Cr284   2.004       .  S
O269        C270   1.269       .  A
C270        O271   1.266       .  A
C270        C801   1.494       .  S
O271       Cr285   2.007       .  S
O272       Cr285   1.963       .  S
O272        C273   1.256       .  A
C273        C833   1.449       .  S
O274       Cr283   1.984       .  S
O274        C282   1.259       .  A
O275       Cr283   2.005       .  S
O275        C276   1.266       .  A
C276        O277   1.260       .  A
C276        C969   1.474       .  S
O277       Cr284   1.966       .  S
O278       Cr284   2.033       .  S
O278        C279   1.271       .  A
C279        O280   1.255       .  A
C279        C825   1.460       .  S
O280       Cr285   1.954       .  S
O281       Cr285   2.011       .  S
O281        C282   1.264       .  A
C282       C1281   1.470   1_556  S
Cr283       O286   1.768       .  S
Cr284       O286   1.776       .  S
Cr285       O286   1.758       .  S
O287       Cr305   1.963       .  S
O287        C295   1.259       .  A
O288       Cr305   1.990       .  S
O288        C289   1.260       .  A
C289        O290   1.271       .  A
C289       C1249   1.488   1_556  S
O290       Cr306   2.029       .  S
O291       Cr306   2.016       .  S
O291        C292   1.267       .  A
C292        O293   1.262       .  A
C292        C769   1.497       .  S
O293       Cr307   1.994       .  S
O294       Cr307   1.989       .  S
O294        C295   1.266       .  A
C295        C841   1.464       .  S
O296       Cr305   2.007       .  S
O296        C304   1.261       .  A
O297       Cr305   1.977       .  S
O297        C298   1.263       .  A
C298        O299   1.269       .  A
C298        C881   1.481       .  S
O299       Cr306   2.015       .  S
O300       Cr306   2.013       .  S
O300        C301   1.269       .  A
C301        O302   1.263       .  A
C301        C793   1.479       .  S
O302       Cr307   1.976       .  S
O303       Cr307   1.989       .  S
O303        C304   1.261       .  A
C304       C1041   1.486       .  S
Cr305       O308   1.774       .  S
Cr306       O308   1.767       .  S
Cr307       O308   1.766       .  S
O309       Cr327   2.016   1_556  S
O309        C317   1.277       .  A
O310       Cr327   1.942       .  S
O310        C311   1.250       .  A
C311        O312   1.277       .  A
C311        C745   1.483       .  S
O312       Cr328   2.060       .  S
O313       Cr328   2.028       .  S
O313        C314   1.267       .  A
C314        O315   1.259       .  A
C314       C1153   1.493       .  S
O315       Cr329   1.989       .  S
O316       Cr329   1.953   1_556  S
O316        C317   1.259       .  A
C317        C761   1.459       .  S
O318       Cr327   1.984       .  S
O318        C326   1.252   1_554  A
O319       Cr327   2.017       .  S
O319        C320   1.267       .  A
C320        O321   1.261       .  A
C320       C1545   1.486       .  S
O321       Cr328   1.973       .  S
O322       Cr328   2.061       .  S
O322        C323   1.282       .  A
C323        O324   1.260       .  A
C323       C1313   1.478       .  S
O324       Cr329   1.946       .  S
O325       Cr329   2.002   1_556  S
O325        C326   1.258       .  A
C326        C817   1.470       .  S
Cr327       O330   1.764       .  S
Cr328       O330   1.772       .  S
Cr329       O330   1.765       .  S
O331       Cr349   1.998       .  S
O331        C339   1.265       .  A
O332       Cr349   1.963       .  S
O332        C333   1.256       .  A
C333        O334   1.274       .  A
C333        C809   1.483       .  S
O334       Cr350   2.054       .  S
O335       Cr350   2.003       .  S
O335        C336   1.269       .  A
C336        O337   1.268       .  A
C336       C1337   1.495       .  S
O337       Cr351   2.012       .  S
O338       Cr351   1.964       .  S
O338        C339   1.254       .  A
C339        C753   1.450       .  S
O340       Cr349   1.971       .  S
O340        C348   1.257       .  A
O341       Cr349   2.009       .  S
O341        C342   1.267       .  A
C342        O343   1.264       .  A
C342       C1625   1.486       .  S
O343       Cr350   1.987       .  S
O344       Cr350   2.045       .  S
O344        C345   1.272       .  A
C345        O346   1.252       .  A
C345       C1489   1.468       .  S
O346       Cr351   1.949       .  S
O347       Cr351   2.011       .  S
O347        C348   1.265       .  A
C348        C729   1.464       .  S
Cr349       O352   1.767       .  S
Cr350       O352   1.775       .  S
Cr351       O352   1.764       .  S
O353       Cr371   1.989       .  S
O353        C361   1.265       .  A
O354       Cr371   1.950       .  S
O354        C355   1.254       .  A
C355        O356   1.276       .  A
C355        C673   1.477   1_455  S
O356       Cr372   2.055       .  S
O357       Cr372   2.009       .  S
O357        C358   1.268       .  A
C358        O359   1.264       .  A
C358        C737   1.499       .  S
O359       Cr373   2.006       .  S
O360       Cr373   1.966       .  S
O360        C361   1.258       .  A
C361        C713   1.456       .  S
O362       Cr371   1.985       .  S
O362        C370   1.258       .  A
O363       Cr371   1.991       .  S
O363        C364   1.262       .  A
C364        O365   1.261       .  A
C364        C697   1.478       .  S
O365       Cr372   1.984       .  S
O366       Cr372   2.042       .  S
O366        C367   1.275       .  A
C367        O368   1.258       .  A
C367        C721   1.474       .  S
O368       Cr373   1.948       .  S
O369       Cr373   2.015       .  S
O369        C370   1.264       .  A
C370       C1457   1.472       .  S
Cr371       O374   1.766       .  S
Cr372       O374   1.779       .  S
Cr373       O374   1.766       .  S
O375       Cr393   1.988   1_545  S
O375        C383   1.263       .  A
O376       Cr393   1.970       .  S
O376        C377   1.256       .  A
C377        O378   1.273       .  A
C377       C1433   1.488       .  S
O378       Cr394   2.054       .  S
O379       Cr394   2.007       .  S
O379        C380   1.271       .  A
C380        O381   1.268       .  A
C380        C929   1.497       .  S
O381       Cr395   2.012       .  S
O382       Cr395   1.968   1_545  S
O382        C383   1.254       .  A
C383        C705   1.449       .  S
O384       Cr393   1.977       .  S
O384        C392   1.258       .  A
O385       Cr393   2.002       .  S
O385        C386   1.266       .  A
C386        O387   1.265       .  A
C386        C649   1.481       .  S
O387       Cr394   1.986       .  S
O388       Cr394   2.043       .  S
O388        C389   1.271       .  A
C389        O390   1.253       .  A
C389        C913   1.471       .  S
O390       Cr395   1.956       .  S
O391       Cr395   2.013       .  S
O391        C392   1.267       .  A
C392        C657   1.472   1_565  S
Cr393       O396   1.768       .  S
Cr394       O396   1.776       .  S
Cr395       O396   1.763       .  S
O397       Cr415   1.989       .  S
O397        C405   1.270       .  A
O398       Cr415   1.956       .  S
O398        C399   1.253       .  A
C399        O400   1.276       .  A
C399       C1601   1.490   1_655  S
O400       Cr416   2.060       .  S
O401       Cr416   2.019       .  S
O401        C402   1.269       .  A
C402        O403   1.260       .  A
C402       C1081   1.493       .  S
O403       Cr417   1.993       .  S
O404       Cr417   1.962       .  S
O404        C405   1.258       .  A
C405        C625   1.452       .  S
O406       Cr415   1.990       .  S
O406        C414   1.254       .  A
O407       Cr415   1.982       .  S
O407        C408   1.262       .  A
C408        O409   1.264       .  A
C408        C641   1.482       .  S
O409       Cr416   1.995       .  S
O410       Cr416   2.051       .  S
O410        C411   1.279       .  A
C411        O412   1.260       .  A
C411       C1065   1.477       .  S
O412       Cr417   1.956       .  S
O413       Cr417   1.998       .  S
O413        C414   1.260       .  A
C414        C785   1.477       .  S
Cr415       O418   1.767       .  S
Cr416       O418   1.775       .  S
Cr417       O418   1.772       .  S
O419       Cr437   1.993       .  S
O419        C427   1.265       .  A
O420       Cr437   1.961       .  S
O420        C421   1.256       .  A
C421        O422   1.279       .  A
C421        C777   1.487       .  S
O422       Cr438   2.063       .  S
O423       Cr438   1.990       .  S
O423        C424   1.263       .  A
C424        O425   1.267       .  A
C424        C593   1.495       .  S
O425       Cr439   2.019       .  S
O426       Cr439   1.959       .  S
O426        C427   1.254       .  A
C427        C633   1.445       .  S
O428       Cr437   1.982       .  S
O428        C436   1.260       .  A
O429       Cr437   2.004       .  S
O429        C430   1.265       .  A
C430        O431   1.259       .  A
C430        C689   1.477       .  S
O431       Cr438   1.971       .  S
O432       Cr438   2.064       .  S
O432        C433   1.279       .  A
C433        O434   1.252       .  A
C433        C617   1.484       .  S
O434       Cr439   1.935       .  S
O435       Cr439   2.018       .  S
O435        C436   1.267       .  A
C436       C1633   1.470   1_655  S
Cr437       O440   1.769       .  S
Cr438       O440   1.771       .  S
Cr439       O440   1.762       .  S
O441       Cr459   1.993   1_655  S
O441        C449   1.264       .  A
O442       Cr459   1.960       .  S
O442        C443   1.255       .  A
C443        O444   1.272       .  A
C443        C561   1.473       .  S
O444       Cr460   2.042       .  S
O445       Cr460   1.996       .  S
O445        C446   1.266       .  A
C446        O447   1.268       .  A
C446       C1513   1.495       .  S
O447       Cr461   2.017       .  S
O448       Cr461   1.964   1_655  S
O448        C449   1.255       .  A
C449        C585   1.448       .  S
O450       Cr459   1.980       .  S
O450        C458   1.259       .  A
O451       Cr459   2.008       .  S
O451        C452   1.266       .  A
C452        O453   1.260       .  A
C452       C1449   1.480       .  S
O453       Cr460   1.975       .  S
O454       Cr460   2.034       .  S
O454        C455   1.271       .  A
C455        O456   1.255       .  A
C455       C1665   1.467       .  S
O456       Cr461   1.941       .  S
O457       Cr461   2.022       .  S
O457        C458   1.267       .  A
C458        C609   1.472       .  S
Cr459       O462   1.765       .  S
Cr460       O462   1.775       .  S
Cr461       O462   1.762       .  S
O463       Cr481   1.963       .  S
O463        C471   1.259       .  A
O464       Cr481   1.990       .  S
O464        C465   1.256       .  A
C465        O466   1.267       .  A
C465        C601   1.484       .  S
O466       Cr482   2.027       .  S
O467       Cr482   2.030       .  S
O467        C468   1.269       .  A
C468        O469   1.260       .  A
C468       C1233   1.491       .  S
O469       Cr483   1.974       .  S
O470       Cr483   1.989       .  S
O470        C471   1.266       .  A
C471        C577   1.459       .  S
O472       Cr481   2.004       .  S
O472        C480   1.261       .  A
O473       Cr481   1.947       .  S
O473        C474   1.259       .  A
C474        O475   1.276       .  A
C474       C1369   1.470       .  S
O475       Cr482   2.037       .  S
O476       Cr482   2.011       .  S
O476        C477   1.268       .  A
C477        O478   1.263       .  A
C477       C1225   1.478       .  S
O478       Cr483   1.979       .  S
O479       Cr483   1.988       .  S
O479        C480   1.261       .  A
C480        C545   1.481       .  S
Cr481       O484   1.772       .  S
Cr482       O484   1.770       .  S
Cr483       O484   1.757       .  S
O485       Cr503   1.968       .  S
O485        C493   1.260       .  A
O486       Cr503   1.984       .  S
O486        C487   1.256       .  A
C487        O488   1.271       .  A
C487        C865   1.487       .  S
O488       Cr504   2.032       .  S
O489       Cr504   2.032       .  S
O489        C490   1.270       .  A
C490        O491   1.258       .  A
C490        C569   1.487       .  S
O491       Cr505   1.965       .  S
O492       Cr505   1.982       .  S
O492        C493   1.264       .  A
C493        C529   1.452       .  S
O494       Cr503   2.002       .  S
O494        C502   1.261       .  A
O495       Cr503   1.947       .  S
O495        C496   1.259       .  A
C496        O497   1.272       .  A
C496       C1105   1.460       .  S
O497       Cr504   2.022       .  S
O498       Cr504   2.007       .  S
O498        C499   1.265       .  A
C499        O500   1.260       .  A
C499        C553   1.471       .  S
O500       Cr505   1.982       .  S
O501       Cr505   1.983       .  S
O501        C502   1.260       .  A
C502       C1201   1.480       .  S
Cr503       O506   1.764       .  S
Cr504       O506   1.771       .  S
Cr505       O506   1.759       .  S
O507       Cr525   1.969   1_554  S
O507        C515   1.262       .  A
O508       Cr525   1.986       .  S
O508        C509   1.255       .  A
C509        O510   1.272       .  A
C509       C1169   1.491       .  S
O510       Cr526   2.038       .  S
O511       Cr526   2.052       .  S
O511        C512   1.275       .  A
C512        O513   1.257       .  A
C512        C681   1.496       .  S
O513       Cr527   1.959       .  S
O514       Cr527   1.983   1_554  S
O514        C515   1.265       .  A
C515        C537   1.455       .  S
O516       Cr525   1.992   1_554  S
O516        C524   1.259   1_554  A
O517       Cr525   1.940       .  S
O517        C518   1.258       .  A
C518        O519   1.277       .  A
C518       C1033   1.470       .  S
O519       Cr526   2.042       .  S
O520       Cr526   2.008       .  S
O520        C521   1.265       .  A
C521        O522   1.260       .  A
C521        C665   1.471       .  S
O522       Cr527   1.982       .  S
O523       Cr527   1.992       .  S
O523        C524   1.261       .  A
C524        C905   1.477   1_556  S
Cr525       O528   1.760       .  S
Cr526       O528   1.770       .  S
Cr527       O528   1.756       .  S
C529        C530   1.400       .  A
C529        C534   1.401       .  A
C530        C531   1.393       .  A
C530        H539   1.083       .  S
C531        C532   1.403       .  A
C531        H540   1.084       .  S
C532        C538   1.389       .  A
C532        C533   1.412       .  A
C533        C535   1.402       .  A
C533        C534   1.388       .  A
C534        H541   1.085       .  S
C535        C536   1.392       .  A
C535        H542   1.084       .  S
C536        C537   1.400       .  A
C536        H543   1.083       .  S
C537        C538   1.403       .  A
C538        H544   1.085       .  S
C545        C546   1.403       .  A
C545        C550   1.412       .  A
C546        C547   1.395       .  A
C546        H555   1.083       .  S
C547        C548   1.403       .  A
C547        H556   1.082       .  S
C548        C554   1.400       .  A
C548        C549   1.412       .  A
C549        C551   1.408       .  A
C549        C550   1.407       .  A
C550        H557   1.084       .  S
C551        C552   1.404       .  A
C551        H558   1.083       .  S
C552        C553   1.401       .  A
C552        H559   1.083       .  S
C553        C554   1.404       .  A
C554        H560   1.082       .  S
C561        C562   1.405       .  A
C561        C566   1.402       .  A
C562        C563   1.402       .  A
C562        H571   1.084       .  S
C563        C564   1.404   1_455  A
C563        H572   1.083       .  S
C564        C570   1.413       .  A
C564        C565   1.415       .  A
C565        C567   1.398       .  A
C565        C566   1.406   1_655  A
C566        H573   1.085   1_455  S
C567        C568   1.395       .  A
C567        H574   1.084       .  S
C568        C569   1.409       .  A
C568        H575   1.083       .  S
C569        C570   1.409       .  A
C570        H576   1.084       .  S
C577        C578   1.402       .  A
C577        C582   1.403       .  A
C578        C579   1.391       .  A
C578        H587   1.083       .  S
C579        C580   1.401       .  A
C579        H588   1.084       .  S
C580        C586   1.389       .  A
C580        C581   1.413       .  A
C581        C583   1.404       .  A
C581        C582   1.392       .  A
C582        H589   1.085       .  S
C583        C584   1.395       .  A
C583        H590   1.083       .  S
C584        C585   1.398       .  A
C584        H591   1.083       .  S
C585        C586   1.399       .  A
C586        H592   1.085       .  S
C593        C594   1.407       .  A
C593        C598   1.414       .  A
C594        C595   1.400       .  A
C594        H603   1.083       .  S
C595        C596   1.403       .  A
C595        H604   1.083       .  S
C596        C602   1.408       .  A
C596        C597   1.412       .  A
C597        C599   1.407       .  A
C597        C598   1.413       .  A
C598        H605   1.084       .  S
C599        C600   1.405       .  A
C599        H606   1.083       .  S
C600        C601   1.405       .  A
C600        H607   1.083       .  S
C601        C602   1.409       .  A
C602        H608   1.084       .  S
C609        C610   1.400       .  A
C609        C614   1.409   1_455  A
C610        C611   1.398       .  A
C610        H619   1.084       .  S
C611        C612   1.405   1_455  A
C611        H620   1.084       .  S
C612        C618   1.401       .  A
C612        C613   1.412       .  A
C613        C615   1.409       .  A
C613        C614   1.410       .  A
C614        H621   1.084       .  S
C615        C616   1.407       .  A
C615        H622   1.083       .  S
C616        C617   1.403       .  A
C616        H623   1.083       .  S
C617        C618   1.411       .  A
C618        H624   1.085       .  S
C625        C626   1.402       .  A
C625        C630   1.394       .  A
C626        C627   1.398       .  A
C626        H635   1.083       .  S
C627        C628   1.403       .  A
C627        H636   1.084       .  S
C628        C634   1.399       .  A
C628        C629   1.417       .  A
C629        C631   1.395       .  A
C629        C630   1.385       .  A
C630        H637   1.087       .  S
C631        C632   1.382       .  A
C631        H638   1.085       .  S
C632        C633   1.401       .  A
C632        H639   1.083       .  S
C633        C634   1.398       .  A
C634        H640   1.084       .  S
C641        C642   1.408   1_655  A
C641        C646   1.406       .  A
C642        C643   1.393       .  A
C642        H651   1.083       .  S
C643        C644   1.398       .  A
C643        H652   1.084       .  S
C644        C650   1.403       .  A
C644        C645   1.415       .  A
C645        C647   1.401       .  A
C645        C646   1.408   1_455  A
C646        H653   1.084       .  S
C647        C648   1.398       .  A
C647        H654   1.083       .  S
C648        C649   1.408       .  A
C648        H655   1.083       .  S
C649        C650   1.403       .  A
C650        H656   1.084       .  S
C657        C658   1.401   1_445  A
C657        C662   1.408   1_455  A
C658        C659   1.396   1_565  A
C658        H667   1.084       .  S
C659        C660   1.403       .  A
C659        H668   1.083   1_545  S
C660        C666   1.402       .  A
C660        C661   1.414       .  A
C661        C663   1.407       .  A
C661        C662   1.409       .  A
C662        H669   1.084   1_655  S
C663        C664   1.404       .  A
C663        H670   1.083       .  S
C664        C665   1.402       .  A
C664        H671   1.083       .  S
C665        C666   1.404       .  A
C666        H672   1.084       .  S
C673        C674   1.407       .  A
C673        C678   1.403       .  A
C674        C675   1.406       .  A
C674        H683   1.084       .  S
C675        C676   1.405       .  A
C675        H684   1.083       .  S
C676        C682   1.419       .  A
C676        C677   1.416       .  A
C677        C679   1.396       .  A
C677        C678   1.407       .  A
C678        H685   1.085   1_655  S
C679        C680   1.393       .  A
C679        H686   1.084       .  S
C680        C681   1.411       .  A
C680        H687   1.083       .  S
C681        C682   1.412       .  A
C682        H688   1.084       .  S
C689        C690   1.405       .  A
C689        C694   1.407       .  A
C690        C691   1.394       .  A
C690        H699   1.083       .  S
C691        C692   1.401       .  A
C691        H700   1.084       .  S
C692        C698   1.399       .  A
C692        C693   1.413       .  A
C693        C695   1.404   1_655  A
C693        C694   1.404       .  A
C694        H701   1.084       .  S
C695        C696   1.399       .  A
C695        H702   1.084       .  S
C696        C697   1.405       .  A
C696        H703   1.083       .  S
C697        C698   1.406   1_455  A
C698        H704   1.084       .  S
C705        C706   1.399       .  A
C705        C710   1.396       .  A
C706        C707   1.398       .  A
C706        H715   1.083       .  S
C707        C708   1.405       .  A
C707        H716   1.083       .  S
C708        C714   1.398       .  A
C708        C709   1.415       .  A
C709        C711   1.398       .  A
C709        C710   1.389       .  A
C710        H717   1.086       .  S
C711        C712   1.388       .  A
C711        H718   1.084       .  S
C712        C713   1.402       .  A
C712        H719   1.084       .  S
C713        C714   1.402       .  A
C714        H720   1.084       .  S
C721        C722   1.403       .  A
C721        C726   1.406       .  A
C722        C723   1.403       .  A
C722        H731   1.083       .  S
C723        C724   1.407       .  A
C723        H732   1.083       .  S
C724        C730   1.405       .  A
C724        C725   1.413       .  A
C725        C727   1.403       .  A
C725        C726   1.398       .  A
C726        H733   1.083       .  S
C727        C728   1.395       .  A
C727        H734   1.083       .  S
C728        C729   1.399       .  A
C728        H735   1.084       .  S
C729        C730   1.406       .  A
C730        H736   1.084       .  S
C737        C738   1.406       .  A
C737        C742   1.414       .  A
C738        C739   1.407   1_556  A
C738        H747   1.083       .  S
C739        C740   1.407       .  A
C739        H748   1.083       .  S
C740        C746   1.416       .  A
C740        C741   1.412   1_554  A
C741        C743   1.405       .  A
C741        C742   1.412       .  A
C742        H749   1.084       .  S
C743        C744   1.402   1_556  A
C743        H750   1.083       .  S
C744        C745   1.405       .  A
C744        H751   1.084   1_554  S
C745        C746   1.413       .  A
C746        H752   1.084       .  S
C753        C754   1.401       .  A
C753        C758   1.398       .  A
C754        C755   1.386       .  A
C754        H763   1.084       .  S
C755        C756   1.396       .  A
C755        H764   1.084       .  S
C756        C762   1.391       .  A
C756        C757   1.418       .  A
C757        C759   1.402       .  A
C757        C758   1.401       .  A
C758        H765   1.085       .  S
C759        C760   1.396       .  A
C759        H766   1.084       .  S
C760        C761   1.405       .  A
C760        H767   1.083       .  S
C761        C762   1.395       .  A
C762        H768   1.085       .  S
C769        C770   1.407       .  A
C769        C774   1.413       .  A
C770        C771   1.402       .  A
C770        H779   1.083       .  S
C771        C772   1.404       .  A
C771        H780   1.083       .  S
C772        C778   1.415       .  A
C772        C773   1.414       .  A
C773        C775   1.406       .  A
C773        C774   1.417       .  A
C774        H781   1.084       .  S
C775        C776   1.405       .  A
C775        H782   1.083       .  S
C776        C777   1.405       .  A
C776        H783   1.083       .  S
C777        C778   1.410       .  A
C778        H784   1.084       .  S
C785        C786   1.404       .  A
C785        C790   1.411       .  A
C786        C787   1.386       .  A
C786        H795   1.084       .  S
C787        C788   1.396       .  A
C787        H796   1.084       .  S
C788        C794   1.393       .  A
C788        C789   1.414       .  A
C789        C791   1.409       .  A
C789        C790   1.415       .  A
C790        H797   1.084       .  S
C791        C792   1.409       .  A
C791        H798   1.083       .  S
C792        C793   1.406       .  A
C792        H799   1.083       .  S
C793        C794   1.403       .  A
C794        H800   1.085       .  S
C801        C802   1.406       .  A
C801        C806   1.412       .  A
C802        C803   1.406       .  A
C802        H811   1.083       .  S
C803        C804   1.407       .  A
C803        H812   1.083       .  S
C804        C810   1.415       .  A
C804        C805   1.413       .  A
C805        C807   1.404       .  A
C805        C806   1.409       .  A
C806        H813   1.084       .  S
C807        C808   1.400       .  A
C807        H814   1.083       .  S
C808        C809   1.404       .  A
C808        H815   1.084       .  S
C809        C810   1.411       .  A
C810        H816   1.084       .  S
C817        C818   1.404       .  A
C817        C822   1.404       .  A
C818        C819   1.392       .  A
C818        H827   1.084       .  S
C819        C820   1.399       .  A
C819        H828   1.084       .  S
C820        C826   1.399       .  A
C820        C821   1.416       .  A
C821        C823   1.404       .  A
C821        C822   1.407       .  A
C822        H829   1.084   1_556  S
C823        C824   1.400       .  A
C823        H830   1.084       .  S
C824        C825   1.403       .  A
C824        H831   1.083       .  S
C825        C826   1.399       .  A
C826        H832   1.086       .  S
C833        C834   1.398       .  A
C833        C838   1.398       .  A
C834        C835   1.395       .  A
C834        H843   1.083       .  S
C835        C836   1.404       .  A
C835        H844   1.083       .  S
C836        C842   1.393       .  A
C836        C837   1.413       .  A
C837        C839   1.400       .  A
C837        C838   1.390       .  A
C838        H845   1.085       .  S
C839        C840   1.391       .  A
C839        H846   1.084       .  S
C840        C841   1.404       .  A
C840        H847   1.083       .  S
C841        C842   1.404       .  A
C842        H848   1.084       .  S
C849        C850   1.399       .  A
C849        C854   1.398       .  A
C850        C851   1.393       .  A
C850        H859   1.084       .  S
C851        C852   1.402       .  A
C851        H860   1.084       .  S
C852        C858   1.394       .  A
C852        C853   1.416       .  A
C853        C855   1.402       .  A
C853        C854   1.395       .  A
C854        H861   1.085       .  S
C855        C856   1.394       .  A
C855        H862   1.084       .  S
C856        C857   1.399       .  A
C856        H863   1.084       .  S
C857        C858   1.397       .  A
C858        H864   1.085       .  S
C865        C866   1.403       .  A
C865        C870   1.412   1_545  A
C866        C867   1.407   1_545  A
C866        H875   1.083       .  S
C867        C868   1.409       .  A
C867        H876   1.083       .  S
C868        C874   1.413       .  A
C868        C869   1.411       .  A
C869        C871   1.405       .  A
C869        C870   1.407       .  A
C870        H877   1.084       .  S
C871        C872   1.401       .  A
C871        H878   1.083       .  S
C872        C873   1.405       .  A
C872        H879   1.083       .  S
C873        C874   1.415       .  A
C874        H880   1.084       .  S
C881        C882   1.407       .  A
C881        C886   1.404       .  A
C882        C883   1.399   1_556  A
C882        H891   1.083       .  S
C883        C884   1.402       .  A
C883        H892   1.083       .  S
C884        C890   1.408       .  A
C884        C885   1.415       .  A
C885        C887   1.398       .  A
C885        C886   1.403   1_554  A
C886        H893   1.084       .  S
C887        C888   1.393       .  A
C887        H894   1.084       .  S
C888        C889   1.409       .  A
C888        H895   1.083       .  S
C889        C890   1.407       .  A
C890        H896   1.084       .  S
C897        C898   1.402       .  A
C897        C902   1.410       .  A
C898        C899   1.402       .  A
C898        H907   1.083       .  S
C899        C900   1.407       .  A
C899        H908   1.083       .  S
C900        C906   1.402       .  A
C900        C901   1.410       .  A
C901        C903   1.404   1_554  A
C901        C902   1.398       .  A
C902        H909   1.085       .  S
C903        C904   1.397       .  A
C903        H910   1.084       .  S
C904        C905   1.402   1_566  A
C904        H911   1.083       .  S
C905        C906   1.411   1_545  A
C906        H912   1.084   1_565  S
C913        C914   1.405       .  A
C913        C918   1.403       .  A
C914        C915   1.400       .  A
C914        H923   1.083       .  S
C915        C916   1.403       .  A
C915        H924   1.083   1_455  S
C916        C922   1.410       .  A
C916        C917   1.417       .  A
C917        C919   1.401       .  A
C917        C918   1.406       .  A
C918        H925   1.085       .  S
C919        C920   1.395   1_556  A
C919        H926   1.084   1_556  S
C920        C921   1.403       .  A
C920        H927   1.081       .  S
C921        C922   1.404   1_554  A
C922        H928   1.084   1_455  S
C929        C930   1.405       .  A
C929        C934   1.416       .  A
C930        C931   1.404       .  A
C930        H939   1.083       .  S
C931        C932   1.407       .  A
C931        H940   1.083       .  S
C932        C938   1.410       .  A
C932        C933   1.410       .  A
C933        C935   1.409       .  A
C933        C934   1.414       .  A
C934        H941   1.084       .  S
C935        C936   1.407   1_556  A
C935        H942   1.083   1_556  S
C936        C937   1.404       .  A
C936        H943   1.083       .  S
C937        C938   1.414   1_554  A
C938        H944   1.084       .  S
C945        C946   1.411       .  A
C945        C950   1.412       .  A
C946        C947   1.397       .  A
C946        H955   1.083       .  S
C947        C948   1.399       .  A
C947        H956   1.084       .  S
C948        C954   1.411       .  A
C948        C949   1.415       .  A
C949        C951   1.405   1_565  A
C949        C950   1.418       .  A
C950        H957   1.084       .  S
C951        C952   1.405       .  A
C951        H958   1.083       .  S
C952        C953   1.407       .  A
C952        H959   1.084       .  S
C953        C954   1.406   1_545  A
C954        H960   1.084       .  S
C961        C962   1.403       .  A
C961        C966   1.403       .  A
C962        C963   1.400   1_554  A
C962        H971   1.083       .  S
C963        C964   1.405       .  A
C963        H972   1.083       .  S
C964        C970   1.402       .  A
C964        C965   1.413       .  A
C965        C967   1.399       .  A
C965        C966   1.396   1_556  A
C966        H973   1.085       .  S
C967        C968   1.392       .  A
C967        H974   1.084       .  S
C968        C969   1.405       .  A
C968        H975   1.083       .  S
C969        C970   1.407       .  A
C970        H976   1.084       .  S
C977        C978   1.403       .  A
C977        C982   1.403       .  A
C978        C979   1.405       .  A
C978        H987   1.083       .  S
C979        C980   1.408       .  A
C979        H988   1.083       .  S
C980        C986   1.410       .  A
C980        C981   1.414       .  A
C981        C983   1.402       .  A
C981        C982   1.399       .  A
C982        H989   1.085       .  S
C983        C984   1.394       .  A
C983        H990   1.084       .  S
C984        C985   1.400       .  A
C984        H991   1.083       .  S
C985        C986   1.408       .  A
C986        H992   1.084       .  S
C993        C994   1.402       .  A
C993        C998   1.405       .  A
C994        C995   1.392       .  A
C994       H1003   1.083       .  S
C995        C996   1.402       .  A
C995       H1004   1.084       .  S
C996       C1002   1.386       .  A
C996        C997   1.412       .  A
C997        C999   1.405       .  A
C997        C998   1.386       .  A
C998       H1005   1.084       .  S
C999       C1000   1.393       .  A
C999       H1006   1.084       .  S
C1000      C1001   1.395       .  A
C1000      H1007   1.083       .  S
C1001      C1002   1.396       .  A
C1002      H1008   1.084       .  S
C1009      C1010   1.410       .  A
C1009      C1014   1.411       .  A
C1010      C1011   1.392       .  A
C1010      H1019   1.083       .  S
C1011      C1012   1.396       .  A
C1011      H1020   1.084       .  S
C1012      C1018   1.406       .  A
C1012      C1013   1.417       .  A
C1013      C1015   1.405       .  A
C1013      C1014   1.419       .  A
C1014      H1021   1.084       .  S
C1015      C1016   1.406       .  A
C1015      H1022   1.083       .  S
C1016      C1017   1.407       .  A
C1016      H1023   1.083       .  S
C1017      C1018   1.401       .  A
C1018      H1024   1.085       .  S
C1025      C1026   1.406   1_565  A
C1025      C1030   1.397       .  A
C1026      C1027   1.397       .  A
C1026      H1035   1.082       .  S
C1027      C1028   1.401       .  A
C1027      H1036   1.084       .  S
C1028      C1034   1.405       .  A
C1028      C1029   1.417       .  A
C1029      C1031   1.395   1_545  A
C1029      C1030   1.398   1_545  A
C1030      H1037   1.085       .  S
C1031      C1032   1.389   1_565  A
C1031      H1038   1.084       .  S
C1032      C1033   1.407       .  A
C1032      H1039   1.083       .  S
C1033      C1034   1.403       .  A
C1034      H1040   1.085       .  S
C1041      C1042   1.404       .  A
C1041      C1046   1.414       .  A
C1042      C1043   1.395       .  A
C1042      H1051   1.083       .  S
C1043      C1044   1.402       .  A
C1043      H1052   1.084       .  S
C1044      C1050   1.400       .  A
C1044      C1045   1.411       .  A
C1045      C1047   1.409       .  A
C1045      C1046   1.412       .  A
C1046      H1053   1.084       .  S
C1047      C1048   1.407       .  A
C1047      H1054   1.083       .  S
C1048      C1049   1.405       .  A
C1048      H1055   1.083       .  S
C1049      C1050   1.411       .  A
C1050      H1056   1.084       .  S
C1057      C1058   1.401       .  A
C1057      C1062   1.406       .  A
C1058      C1059   1.396       .  A
C1058      H1067   1.084       .  S
C1059      C1060   1.402       .  A
C1059      H1068   1.084       .  S
C1060      C1066   1.403       .  A
C1060      C1061   1.415       .  A
C1061      C1063   1.406       .  A
C1061      C1062   1.409       .  A
C1062      H1069   1.084       .  S
C1063      C1064   1.403       .  A
C1063      H1070   1.084       .  S
C1064      C1065   1.404       .  A
C1064      H1071   1.083       .  S
C1065      C1066   1.406       .  A
C1066      H1072   1.085       .  S
C1073      C1074   1.404       .  A
C1073      C1078   1.414       .  A
C1074      C1075   1.407       .  A
C1074      H1083   1.083       .  S
C1075      C1076   1.409       .  A
C1075      H1084   1.083       .  S
C1076      C1082   1.412       .  A
C1076      C1077   1.410       .  A
C1077      C1079   1.407       .  A
C1077      C1078   1.409       .  A
C1078      H1085   1.084       .  S
C1079      C1080   1.404       .  A
C1079      H1086   1.083       .  S
C1080      C1081   1.403       .  A
C1080      H1087   1.083       .  S
C1081      C1082   1.416       .  A
C1082      H1088   1.084       .  S
C1089      C1090   1.410       .  A
C1089      C1094   1.413       .  A
C1090      C1091   1.397       .  A
C1090      H1099   1.083       .  S
C1091      C1092   1.399       .  A
C1091      H1100   1.084       .  S
C1092      C1098   1.410       .  A
C1092      C1093   1.415       .  A
C1093      C1095   1.405       .  A
C1093      C1094   1.418       .  A
C1094      H1101   1.084       .  S
C1095      C1096   1.405       .  A
C1095      H1102   1.084       .  S
C1096      C1097   1.407       .  A
C1096      H1103   1.084       .  S
C1097      C1098   1.405       .  A
C1098      H1104   1.084       .  S
C1105      C1106   1.401       .  A
C1105      C1110   1.401   1_545  A
C1106      C1107   1.398       .  A
C1106      H1115   1.083       .  S
C1107      C1108   1.405   1_545  A
C1107      H1116   1.084       .  S
C1108      C1114   1.397       .  A
C1108      C1109   1.413       .  A
C1109      C1111   1.401       .  A
C1109      C1110   1.392       .  A
C1110      H1117   1.085       .  S
C1111      C1112   1.392       .  A
C1111      H1118   1.084       .  S
C1112      C1113   1.401       .  A
C1112      H1119   1.083       .  S
C1113      C1114   1.404       .  A
C1114      H1120   1.085       .  S
C1121      C1122   1.406       .  A
C1121      C1126   1.402       .  A
C1122      C1123   1.409       .  A
C1122      H1131   1.083       .  S
C1123      C1124   1.409       .  A
C1123      H1132   1.084       .  S
C1124      C1130   1.417       .  A
C1124      C1125   1.415       .  A
C1125      C1127   1.398       .  A
C1125      C1126   1.400       .  A
C1126      H1133   1.085       .  S
C1127      C1128   1.390       .  A
C1127      H1134   1.084       .  S
C1128      C1129   1.403       .  A
C1128      H1135   1.084       .  S
C1129      C1130   1.411       .  A
C1130      H1136   1.084   1_565  S
C1137      C1138   1.396       .  A
C1137      C1142   1.395       .  A
C1138      C1139   1.393       .  A
C1138      H1147   1.083       .  S
C1139      C1140   1.404       .  A
C1139      H1148   1.084       .  S
C1140      C1146   1.388       .  A
C1140      C1141   1.414       .  A
C1141      C1143   1.400       .  A
C1141      C1142   1.386       .  A
C1142      H1149   1.086       .  S
C1143      C1144   1.390       .  A
C1143      H1150   1.084       .  S
C1144      C1145   1.403       .  A
C1144      H1151   1.083       .  S
C1145      C1146   1.403       .  A
C1146      H1152   1.084       .  S
C1153      C1154   1.408       .  A
C1153      C1158   1.413       .  A
C1154      C1155   1.393       .  A
C1154      H1163   1.084       .  S
C1155      C1156   1.397       .  A
C1155      H1164   1.084       .  S
C1156      C1162   1.407       .  A
C1156      C1157   1.416       .  A
C1157      C1159   1.407       .  A
C1157      C1158   1.422       .  A
C1158      H1165   1.084       .  S
C1159      C1160   1.408       .  A
C1159      H1166   1.083       .  S
C1160      C1161   1.407       .  A
C1160      H1167   1.083       .  S
C1161      C1162   1.404       .  A
C1162      H1168   1.085       .  S
C1169      C1170   1.403   1_556  A
C1169      C1174   1.415       .  A
C1170      C1171   1.407       .  A
C1170      H1179   1.083       .  S
C1171      C1172   1.409       .  A
C1171      H1180   1.083       .  S
C1172      C1178   1.411       .  A
C1172      C1173   1.410       .  A
C1173      C1175   1.408       .  A
C1173      C1174   1.410   1_554  A
C1174      H1181   1.084       .  S
C1175      C1176   1.405       .  A
C1175      H1182   1.083   1_554  S
C1176      C1177   1.404       .  A
C1176      H1183   1.083       .  S
C1177      C1178   1.416       .  A
C1178      H1184   1.084       .  S
C1185      C1186   1.408       .  A
C1185      C1190   1.410       .  A
C1186      C1187   1.396       .  A
C1186      H1195   1.083       .  S
C1187      C1188   1.400       .  A
C1187      H1196   1.083       .  S
C1188      C1194   1.406       .  A
C1188      C1189   1.414       .  A
C1189      C1191   1.404       .  A
C1189      C1190   1.412       .  A
C1190      H1197   1.084       .  S
C1191      C1192   1.402       .  A
C1191      H1198   1.083       .  S
C1192      C1193   1.407       .  A
C1192      H1199   1.083       .  S
C1193      C1194   1.406       .  A
C1194      H1200   1.084       .  S
C1201      C1202   1.403       .  A
C1201      C1206   1.411       .  A
C1202      C1203   1.395       .  A
C1202      H1211   1.081       .  S
C1203      C1204   1.402       .  A
C1203      H1212   1.084       .  S
C1204      C1210   1.398       .  A
C1204      C1205   1.411       .  A
C1205      C1207   1.407       .  A
C1205      C1206   1.405       .  A
C1206      H1213   1.084       .  S
C1207      C1208   1.402       .  A
C1207      H1214   1.083       .  S
C1208      C1209   1.403       .  A
C1208      H1215   1.083       .  S
C1209      C1210   1.408       .  A
C1210      H1216   1.085       .  S
C1217      C1218   1.405       .  A
C1217      C1222   1.410       .  A
C1218      C1219   1.390       .  A
C1218      H1227   1.084       .  S
C1219      C1220   1.399       .  A
C1219      H1228   1.084       .  S
C1220      C1226   1.397       .  A
C1220      C1221   1.414       .  A
C1221      C1223   1.409       .  A
C1221      C1222   1.412       .  A
C1222      H1229   1.084       .  S
C1223      C1224   1.407       .  A
C1223      H1230   1.083       .  S
C1224      C1225   1.404       .  A
C1224      H1231   1.083       .  S
C1225      C1226   1.404       .  A
C1226      H1232   1.086       .  S
C1233      C1234   1.408       .  A
C1233      C1238   1.410       .  A
C1234      C1235   1.398       .  A
C1234      H1243   1.083       .  S
C1235      C1236   1.400       .  A
C1235      H1244   1.083       .  S
C1236      C1242   1.410       .  A
C1236      C1237   1.415       .  A
C1237      C1239   1.404       .  A
C1237      C1238   1.414       .  A
C1238      H1245   1.084       .  S
C1239      C1240   1.403       .  A
C1239      H1246   1.083       .  S
C1240      C1241   1.406       .  A
C1240      H1247   1.084       .  S
C1241      C1242   1.406       .  A
C1242      H1248   1.084       .  S
C1249      C1250   1.405   1_554  A
C1249      C1254   1.409       .  A
C1250      C1251   1.408   1_556  A
C1250      H1259   1.083       .  S
C1251      C1252   1.409       .  A
C1251      H1260   1.083       .  S
C1252      C1258   1.416       .  A
C1252      C1253   1.412       .  A
C1253      C1255   1.402       .  A
C1253      C1254   1.405       .  A
C1254      H1261   1.085       .  S
C1255      C1256   1.397       .  A
C1255      H1262   1.083       .  S
C1256      C1257   1.405       .  A
C1256      H1263   1.083       .  S
C1257      C1258   1.414       .  A
C1258      H1264   1.084       .  S
C1265      C1266   1.406       .  A
C1265      C1270   1.405       .  A
C1266      C1267   1.398       .  A
C1266      H1275   1.083       .  S
C1267      C1268   1.402       .  A
C1267      H1276   1.084       .  S
C1268      C1274   1.404       .  A
C1268      C1269   1.414       .  A
C1269      C1271   1.401       .  A
C1269      C1270   1.401       .  A
C1270      H1277   1.084       .  S
C1271      C1272   1.395       .  A
C1271      H1278   1.084       .  S
C1272      C1273   1.404       .  A
C1272      H1279   1.083       .  S
C1273      C1274   1.405       .  A
C1274      H1280   1.084       .  S
C1281      C1282   1.400       .  A
C1281      C1286   1.408       .  A
C1282      C1283   1.396       .  A
C1282      H1291   1.084       .  S
C1283      C1284   1.403       .  A
C1283      H1292   1.084       .  S
C1284      C1290   1.401       .  A
C1284      C1285   1.413       .  A
C1285      C1287   1.407       .  A
C1285      C1286   1.410       .  A
C1286      H1293   1.084   1_554  S
C1287      C1288   1.405       .  A
C1287      H1294   1.083       .  S
C1288      C1289   1.404       .  A
C1288      H1295   1.083       .  S
C1289      C1290   1.409       .  A
C1290      H1296   1.085       .  S
C1297      C1298   1.402       .  A
C1297      C1302   1.398       .  A
C1298      C1299   1.384       .  A
C1298      H1307   1.082       .  S
C1299      C1300   1.395       .  A
C1299      H1308   1.084       .  S
C1300      C1306   1.390       .  A
C1300      C1301   1.418       .  A
C1301      C1303   1.402       .  A
C1301      C1302   1.402       .  A
C1302      H1309   1.084       .  S
C1303      C1304   1.397       .  A
C1303      H1310   1.083       .  S
C1304      C1305   1.405       .  A
C1304      H1311   1.083       .  S
C1305      C1306   1.394       .  A
C1306      H1312   1.086       .  S
C1313      C1314   1.408       .  A
C1313      C1318   1.405       .  A
C1314      C1315   1.394       .  A
C1314      H1323   1.084       .  S
C1315      C1316   1.398       .  A
C1315      H1324   1.084       .  S
C1316      C1322   1.405       .  A
C1316      C1317   1.418       .  A
C1317      C1319   1.403       .  A
C1317      C1318   1.411       .  A
C1318      H1325   1.084       .  S
C1319      C1320   1.400       .  A
C1319      H1326   1.084       .  S
C1320      C1321   1.404       .  A
C1320      H1327   1.083       .  S
C1321      C1322   1.399       .  A
C1322      H1328   1.085       .  S
C1329      C1330   1.404       .  A
C1329      C1334   1.412       .  A
C1330      C1331   1.405       .  A
C1330      H1339   1.083       .  S
C1331      C1332   1.408       .  A
C1331      H1340   1.083       .  S
C1332      C1338   1.413       .  A
C1332      C1333   1.411       .  A
C1333      C1335   1.405       .  A
C1333      C1334   1.409       .  A
C1334      H1341   1.084       .  S
C1335      C1336   1.402       .  A
C1335      H1342   1.083       .  S
C1336      C1337   1.405       .  A
C1336      H1343   1.083       .  S
C1337      C1338   1.415       .  A
C1338      H1344   1.084       .  S
C1345      C1346   1.409       .  A
C1345      C1350   1.411       .  A
C1346      C1347   1.395       .  A
C1346      H1355   1.083       .  S
C1347      C1348   1.398       .  A
C1347      H1356   1.084       .  S
C1348      C1354   1.408   1_545  A
C1348      C1349   1.415       .  A
C1349      C1351   1.405       .  A
C1349      C1350   1.416       .  A
C1350      H1357   1.084       .  S
C1351      C1352   1.404       .  A
C1351      H1358   1.084       .  S
C1352      C1353   1.406   1_545  A
C1352      H1359   1.082       .  S
C1353      C1354   1.404       .  A
C1354      H1360   1.084       .  S
C1361      C1362   1.402       .  A
C1361      C1366   1.408       .  A
C1362      C1363   1.397       .  A
C1362      H1371   1.083       .  S
C1363      C1364   1.404       .  A
C1363      H1372   1.084       .  S
C1364      C1370   1.398       .  A
C1364      C1365   1.412       .  A
C1365      C1367   1.405       .  A
C1365      C1366   1.399       .  A
C1366      H1373   1.085       .  S
C1367      C1368   1.399       .  A
C1367      H1374   1.084       .  S
C1368      C1369   1.401       .  A
C1368      H1375   1.083       .  S
C1369      C1370   1.406       .  A
C1370      H1376   1.085       .  S
C1377      C1378   1.403       .  A
C1377      C1382   1.406       .  A
C1378      C1379   1.410       .  A
C1378      H1387   1.083       .  S
C1379      C1380   1.412       .  A
C1379      H1388   1.084       .  S
C1380      C1386   1.414   1_545  A
C1380      C1381   1.411       .  A
C1381      C1383   1.401       .  A
C1381      C1382   1.399       .  A
C1382      H1389   1.084       .  S
C1383      C1384   1.394   1_545  A
C1383      H1390   1.084       .  S
C1384      C1385   1.405       .  A
C1384      H1391   1.083       .  S
C1385      C1386   1.417       .  A
C1386      H1392   1.084       .  S
C1393      C1394   1.404       .  A
C1393      C1398   1.406       .  A
C1394      C1395   1.402       .  A
C1394      H1403   1.083       .  S
C1395      C1396   1.406       .  A
C1395      H1404   1.084       .  S
C1396      C1402   1.405       .  A
C1396      C1397   1.412       .  A
C1397      C1399   1.401       .  A
C1397      C1398   1.397       .  A
C1398      H1405   1.085       .  S
C1399      C1400   1.393       .  A
C1399      H1406   1.084       .  S
C1400      C1401   1.403       .  A
C1400      H1407   1.083       .  S
C1401      C1402   1.409       .  A
C1402      H1408   1.084       .  S
C1409      C1410   1.409       .  A
C1409      C1414   1.405       .  A
C1410      C1411   1.411       .  A
C1410      H1419   1.083       .  S
C1411      C1412   1.408       .  A
C1411      H1420   1.083       .  S
C1412      C1418   1.428       .  A
C1412      C1413   1.416       .  A
C1413      C1415   1.396       .  A
C1413      C1414   1.411       .  A
C1414      H1421   1.085       .  S
C1415      C1416   1.394       .  A
C1415      H1422   1.084       .  S
C1416      C1417   1.411       .  A
C1416      H1423   1.083       .  S
C1417      C1418   1.416       .  A
C1418      H1424   1.083       .  S
C1425      C1426   1.410       .  A
C1425      C1430   1.414       .  A
C1426      C1427   1.393       .  A
C1426      H1435   1.083       .  S
C1427      C1428   1.396       .  A
C1427      H1436   1.084       .  S
C1428      C1434   1.409       .  A
C1428      C1429   1.416       .  A
C1429      C1431   1.407   1_545  A
C1429      C1430   1.423       .  A
C1430      H1437   1.084       .  S
C1431      C1432   1.409       .  A
C1431      H1438   1.083       .  S
C1432      C1433   1.408       .  A
C1432      H1439   1.083       .  S
C1433      C1434   1.404   1_565  A
C1434      H1440   1.085       .  S
C1441      C1442   1.406       .  A
C1441      C1446   1.406       .  A
C1442      C1443   1.396       .  A
C1442      H1451   1.083       .  S
C1443      C1444   1.401       .  A
C1443      H1452   1.084       .  S
C1444      C1450   1.403       .  A
C1444      C1445   1.414       .  A
C1445      C1447   1.402       .  A
C1445      C1446   1.404       .  A
C1446      H1453   1.084       .  S
C1447      C1448   1.397       .  A
C1447      H1454   1.084       .  S
C1448      C1449   1.406       .  A
C1448      H1455   1.083       .  S
C1449      C1450   1.406       .  A
C1450      H1456   1.084       .  S
C1457      C1458   1.401       .  A
C1457      C1462   1.407       .  A
C1458      C1459   1.397       .  A
C1458      H1467   1.082       .  S
C1459      C1460   1.403       .  A
C1459      H1468   1.084       .  S
C1460      C1466   1.403       .  A
C1460      C1461   1.413       .  A
C1461      C1463   1.406       .  A
C1461      C1462   1.410       .  A
C1462      H1469   1.084       .  S
C1463      C1464   1.404       .  A
C1463      H1470   1.083       .  S
C1464      C1465   1.405       .  A
C1464      H1471   1.083       .  S
C1465      C1466   1.410       .  A
C1466      H1472   1.085       .  S
C1473      C1474   1.396       .  A
C1473      C1478   1.399       .  A
C1474      C1475   1.391       .  A
C1474      H1483   1.083       .  S
C1475      C1476   1.403       .  A
C1475      H1484   1.084       .  S
C1476      C1482   1.387       .  A
C1476      C1477   1.412       .  A
C1477      C1479   1.404       .  A
C1477      C1478   1.393       .  A
C1478      H1485   1.084       .  S
C1479      C1480   1.397       .  A
C1479      H1486   1.084       .  S
C1480      C1481   1.403       .  A
C1480      H1487   1.083       .  S
C1481      C1482   1.404       .  A
C1482      H1488   1.084       .  S
C1489      C1490   1.405       .  A
C1489      C1494   1.402       .  A
C1490      C1491   1.400       .  A
C1490      H1499   1.083       .  S
C1491      C1492   1.402       .  A
C1491      H1500   1.084       .  S
C1492      C1498   1.411       .  A
C1492      C1493   1.418       .  A
C1493      C1495   1.399       .  A
C1493      C1494   1.405       .  A
C1494      H1501   1.085       .  S
C1495      C1496   1.394       .  A
C1495      H1502   1.084       .  S
C1496      C1497   1.404       .  A
C1496      H1503   1.081       .  S
C1497      C1498   1.403       .  A
C1498      H1504   1.084       .  S
C1505      C1506   1.404       .  A
C1505      C1510   1.412       .  A
C1506      C1507   1.407       .  A
C1506      H1515   1.083       .  S
C1507      C1508   1.409       .  A
C1507      H1516   1.083       .  S
C1508      C1514   1.415       .  A
C1508      C1509   1.411       .  A
C1509      C1511   1.404       .  A
C1509      C1510   1.409       .  A
C1510      H1517   1.084       .  S
C1511      C1512   1.401       .  A
C1511      H1518   1.083       .  S
C1512      C1513   1.406       .  A
C1512      H1519   1.083       .  S
C1513      C1514   1.415       .  A
C1514      H1520   1.084       .  S
C1521      C1522   1.409       .  A
C1521      C1526   1.414       .  A
C1522      C1523   1.400       .  A
C1522      H1531   1.083       .  S
C1523      C1524   1.402       .  A
C1523      H1532   1.084       .  S
C1524      C1530   1.413       .  A
C1524      C1525   1.414       .  A
C1525      C1527   1.407   1_455  A
C1525      C1526   1.420       .  A
C1526      H1533   1.084       .  S
C1527      C1528   1.407       .  A
C1527      H1534   1.083       .  S
C1528      C1529   1.406       .  A
C1528      H1535   1.083       .  S
C1529      C1530   1.410   1_655  A
C1530      H1536   1.085       .  S
C1537      C1538   1.408       .  A
C1537      C1542   1.407       .  A
C1538      C1539   1.406       .  A
C1538      H1547   1.083       .  S
C1539      C1540   1.406       .  A
C1539      H1548   1.083       .  S
C1540      C1546   1.414       .  A
C1540      C1541   1.414       .  A
C1541      C1543   1.399       .  A
C1541      C1542   1.403       .  A
C1542      H1549   1.084       .  S
C1543      C1544   1.393       .  A
C1543      H1550   1.084       .  S
C1544      C1545   1.406       .  A
C1544      H1551   1.083       .  S
C1545      C1546   1.411       .  A
C1546      H1552   1.084       .  S
C1553      C1554   1.404       .  A
C1553      C1558   1.415       .  A
C1554      C1555   1.394       .  A
C1554      H1563   1.083       .  S
C1555      C1556   1.402       .  A
C1555      H1564   1.084       .  S
C1556      C1562   1.396       .  A
C1556      C1557   1.410       .  A
C1557      C1559   1.411       .  A
C1557      C1558   1.410       .  A
C1558      H1565   1.084       .  S
C1559      C1560   1.409       .  A
C1559      H1566   1.083       .  S
C1560      C1561   1.402       .  A
C1560      H1567   1.083       .  S
C1561      C1562   1.407       .  A
C1562      H1568   1.082       .  S
C1569      C1570   1.404       .  A
C1569      C1574   1.409       .  A
C1570      C1571   1.404       .  A
C1570      H1579   1.083       .  S
C1571      C1572   1.407       .  A
C1571      H1580   1.084       .  S
C1572      C1578   1.407       .  A
C1572      C1573   1.412       .  A
C1573      C1575   1.403       .  A
C1573      C1574   1.400       .  A
C1574      H1581   1.085       .  S
C1575      C1576   1.396       .  A
C1575      H1582   1.084       .  S
C1576      C1577   1.404       .  A
C1576      H1583   1.083       .  S
C1577      C1578   1.411       .  A
C1578      H1584   1.084       .  S
C1585      C1586   1.404       .  A
C1585      C1590   1.412       .  A
C1586      C1587   1.400       .  A
C1586      H1595   1.084       .  S
C1587      C1588   1.404       .  A
C1587      H1596   1.083       .  S
C1588      C1594   1.408       .  A
C1588      C1589   1.412       .  A
C1589      C1591   1.408       .  A
C1589      C1590   1.415       .  A
C1590      H1597   1.084       .  S
C1591      C1592   1.407       .  A
C1591      H1598   1.083       .  S
C1592      C1593   1.406       .  A
C1592      H1599   1.083       .  S
C1593      C1594   1.411       .  A
C1594      H1600   1.084       .  S
C1601      C1602   1.404   1_455  A
C1601      C1606   1.415       .  A
C1602      C1603   1.403   1_655  A
C1602      H1611   1.083       .  S
C1603      C1604   1.405       .  A
C1603      H1612   1.083       .  S
C1604      C1610   1.414       .  A
C1604      C1605   1.413       .  A
C1605      C1607   1.408       .  A
C1605      C1606   1.419       .  A
C1606      H1613   1.084       .  S
C1607      C1608   1.408       .  A
C1607      H1614   1.083       .  S
C1608      C1609   1.408       .  A
C1608      H1615   1.083       .  S
C1609      C1610   1.413       .  A
C1610      H1616   1.084       .  S
C1617      C1618   1.409       .  A
C1617      C1622   1.408       .  A
C1618      C1619   1.397       .  A
C1618      H1627   1.083       .  S
C1619      C1620   1.400       .  A
C1619      H1628   1.084       .  S
C1620      C1626   1.408       .  A
C1620      C1621   1.415       .  A
C1621      C1623   1.402       .  A
C1621      C1622   1.411       .  A
C1622      H1629   1.084       .  S
C1623      C1624   1.400       .  A
C1623      H1630   1.083       .  S
C1624      C1625   1.408       .  A
C1624      H1631   1.083       .  S
C1625      C1626   1.406       .  A
C1626      H1632   1.084       .  S
C1633      C1634   1.400       .  A
C1633      C1638   1.408       .  A
C1634      C1635   1.396       .  A
C1634      H1643   1.083       .  S
C1635      C1636   1.404       .  A
C1635      H1644   1.085       .  S
C1636      C1642   1.400       .  A
C1636      C1637   1.413       .  A
C1637      C1639   1.408       .  A
C1637      C1638   1.409       .  A
C1638      H1645   1.085   1_455  S
C1639      C1640   1.406       .  A
C1639      H1646   1.084       .  S
C1640      C1641   1.404       .  A
C1640      H1647   1.083       .  S
C1641      C1642   1.409       .  A
C1642      H1648   1.086       .  S
C1649      C1650   1.399       .  A
C1649      C1654   1.401       .  A
C1650      C1651   1.397       .  A
C1650      H1659   1.083       .  S
C1651      C1652   1.406       .  A
C1651      H1660   1.084       .  S
C1652      C1658   1.395       .  A
C1652      C1653   1.412       .  A
C1653      C1655   1.402       .  A
C1653      C1654   1.392       .  A
C1654      H1661   1.085       .  S
C1655      C1656   1.394       .  A
C1655      H1662   1.084       .  S
C1656      C1657   1.402       .  A
C1656      H1663   1.083       .  S
C1657      C1658   1.407       .  A
C1658      H1664   1.085       .  S
C1665      C1666   1.402       .  A
C1665      C1670   1.405       .  A
C1666      C1667   1.401       .  A
C1666      H1675   1.083       .  S
C1667      C1668   1.406       .  A
C1667      H1676   1.084       .  S
C1668      C1674   1.401       .  A
C1668      C1669   1.413       .  A
C1669      C1671   1.404       .  A
C1669      C1670   1.395       .  A
C1670      H1677   1.085       .  S
C1671      C1672   1.395       .  A
C1671      H1678   1.084       .  S
C1672      C1673   1.398       .  A
C1672      H1679   1.084       .  S
C1673      C1674   1.403       .  A
C1674      H1680   1.085       .  S
