geometry optimzed in LAMMPS
_audit_creation_date              2020-11-30 
_audit_creation_method            'lammps2cif' 
_symmetry_space_group_name_H-M    'P1' 
_symmetry_Int_Tables_number       1 
_symmetry_cell_setting            triclinic 
loop_ 
_symmetry_equiv_pos_as_xyz 
  x,y,z 
_cell_length_a                    48.38752758 
_cell_length_b                    48.379517241991 
_cell_length_c                    27.619612097122722 
_cell_angle_alpha                 89.87035901138074 
_cell_angle_beta                  90.07352547808203 
_cell_angle_gamma                 89.81180676415191 
loop_ 
_atom_site_label 
_atom_site_type_symbol 
_atom_site_fract_x 
_atom_site_fract_y 
_atom_site_fract_z 
_atom_site_charge 
C1          C  0.46708386  0.26755549  0.02919741     0.02600
C2          C  0.46900821  0.26567537  0.97839011     0.02600
C3          C  0.49474004  0.26065578  0.95681655    -0.18000
C4          C  0.51881178  0.25794419  0.98504406     0.02600
C5          C  0.51670018  0.25974332  0.03619681     0.02600
C6          C  0.49089157  0.26460610  0.05753576    -0.18000
H7          H  0.48934683  0.26629163  0.09659472     0.04600
H8          H  0.49616066  0.26003678  0.91766859     0.04600
C9          C  0.22842782  0.58306615  0.02235785     0.02600
C10         C  0.22673810  0.58181581  0.97133663     0.02600
C11         C  0.22501106  0.55600442  0.94845781    -0.18000
C12         C  0.22548012  0.53145939  0.97548847     0.02600
C13         C  0.22709612  0.53287619  0.02652192     0.02600
C14         C  0.22846742  0.55861782  0.04937223    -0.18000
H15         H  0.22938931  0.55965679  0.08856213     0.04600
H16         H  0.22445913  0.55497681  0.90925543     0.04600
C17         C  0.52983219  0.81055563  0.96489794     0.02600
C18         C  0.52847385  0.81211334  0.01597605     0.02600
C19         C  0.50282557  0.81411606  0.03897448    -0.18000
C20         C  0.47829921  0.81503466  0.01217734     0.02600
C21         C  0.47959834  0.81451636  0.96106658     0.02600
C22         C  0.50528230  0.81205186  0.93797282    -0.18000
H23         H  0.50607864  0.81074405  0.89881395     0.04600
H24         H  0.50195629  0.81438636  0.07820860     0.04600
C25         C  0.78165630  0.49686671  0.98069254     0.02600
C26         C  0.77846513  0.49697486  0.03164005     0.02600
C27         C  0.77841783  0.52204830  0.05681576    -0.18000
C28         C  0.78039530  0.54722405  0.03220400     0.02600
C29         C  0.78385397  0.54731024  0.98139723     0.02600
C30         C  0.78504044  0.52210597  0.95638226    -0.18000
H31         H  0.78781352  0.52218731  0.91743976     0.04600
H32         H  0.77515188  0.52202724  0.09566511     0.04600
C33         C  0.28223911  0.03208917  0.47151157     0.02600
C34         C  0.28211088  0.03111310  0.52265686     0.02600
C35         C  0.28071311  0.05574715  0.54907596    -0.18000
C36         C  0.27890008  0.08125632  0.52537129     0.02600
C37         C  0.27925541  0.08229929  0.47435448     0.02600
C38         C  0.28115664  0.05772171  0.44784322    -0.18000
H39         H  0.28068179  0.05849913  0.40860771     0.04600
H40         H  0.28015038  0.05500394  0.58830964     0.04600
C41         C  0.97828077  0.76284159  0.46650236     0.02600
C42         C  0.98011011  0.76123050  0.51756576     0.02600
C43         C  0.00594825  0.76347166  0.53996002    -0.18000
C44         C  0.02995317  0.76745376  0.51266479     0.02600
C45         C  0.02830876  0.76870242  0.46159659     0.02600
C46         C  0.00245966  0.76628957  0.43907096    -0.18000
H47         H  0.00108682  0.76768519  0.39995657     0.04600
H48         H  0.00729708  0.76284428  0.57915159     0.04600
C49         C  0.72337239  0.99759619  0.47651030     0.02600
C50         C  0.72721951  0.99604433  0.52723734     0.02600
C51         C  0.72758887  0.02046398  0.55460729    -0.18000
C52         C  0.72463809  0.04631651  0.53222256     0.02600
C53         C  0.72126153  0.04777888  0.48157008     0.02600
C54         C  0.72024356  0.02346943  0.45429328    -0.18000
H55         H  0.71843702  0.02478112  0.41520909     0.04600
H56         H  0.73016967  0.01935734  0.59356264     0.04600
C57         C  0.96693360  0.30696817  0.52824224     0.02600
C58         C  0.96912550  0.30590674  0.47711754     0.02600
C59         C  0.99481732  0.30999848  0.45496862    -0.18000
C60         C  0.01879238  0.31417608  0.48250378     0.02600
C61         C  0.01683684  0.31463262  0.53366197     0.02600
C62         C  0.99094494  0.31148936  0.55570501    -0.18000
H63         H  0.98955923  0.31256621  0.59482566     0.04600
H64         H  0.99629925  0.30889737  0.41583836     0.04600
O65         O  0.26657938  0.29357749  0.19304412    -0.71500
O66         O  0.19961831  0.30406552  0.26185348    -0.71700
O67         O  0.22784866  0.33302373  0.19546446    -0.71500
O68         O  0.23851842  0.26445257  0.25947050    -0.71600
O69         O  0.26105068  0.28522267  0.31669896    -0.71500
O70         O  0.24989397  0.35388233  0.25326399    -0.71500
O71         O  0.22205185  0.32451288  0.31957499    -0.71500
O72         O  0.28899078  0.31451964  0.25019097    -0.71700
V73         V  0.23355172  0.29917794  0.22860772     1.35200
V74         V  0.25507577  0.31914346  0.28380049     1.35200
C75         C  0.28925062  0.30236220  0.20969617     0.77800
C76         C  0.19939503  0.31588162  0.30265160     0.77800
C77         C  0.23715504  0.35513367  0.21336033     0.77700
C78         C  0.25160253  0.26309223  0.29905305     0.77700
O79         O  0.74883484  0.22859668  0.26040274    -0.71500
O80         O  0.75921741  0.29646994  0.19422252    -0.71700
O81         O  0.78876394  0.26682964  0.25848283    -0.71500
O82         O  0.71943023  0.25834272  0.19605584    -0.71600
O83         O  0.69936938  0.27975226  0.25542326    -0.71500
O84         O  0.76877130  0.28893947  0.31710385    -0.71500
O85         O  0.73907647  0.31822820  0.25317240    -0.65900
O86         O  0.72916119  0.25037648  0.31969479    -0.71700
V87         V  0.75368235  0.26295807  0.22846443     1.35200
V88         V  0.73446178  0.28388607  0.28520269     1.35200
C89         C  0.73739143  0.22785437  0.30150108     0.77800
C90         C  0.75082630  0.31893266  0.21236676     0.77800
C91         C  0.79064393  0.27945609  0.29838871     0.77700
C92         C  0.69757567  0.26781201  0.21485534     0.77700
O93         O  0.78816634  0.26535382  0.74905592    -0.71500
O94         O  0.72296577  0.25598541  0.82450046    -0.71700
O95         O  0.74851947  0.22698751  0.75507337    -0.71500
O96         O  0.76310212  0.29453973  0.81914186    -0.71600
O97         O  0.73573428  0.31598129  0.76902316    -0.71500
O98         O  0.72824694  0.24931597  0.69677756    -0.71500
O99         O  0.69902483  0.27446800  0.76633678    -0.71500
O100        O  0.76505858  0.29114464  0.69866837    -0.71700
V101        V  0.75524864  0.26116351  0.78601416     1.35200
V102        V  0.73245550  0.28234643  0.73367642     1.35200
C103        C  0.78775062  0.28038570  0.71149214     0.77800
C104        C  0.69962154  0.26273942  0.80723601     0.77800
C105        C  0.73649564  0.22653663  0.71444384     0.77700
C106        C  0.75146899  0.31665541  0.80563713     0.77700
O107        O  0.79655536  0.78001040  0.24644523    -0.71500
O108        O  0.72862823  0.79235950  0.18116028    -0.71700
O109        O  0.75888358  0.82091510  0.24483166    -0.71500
O110        O  0.76611030  0.75120910  0.18261243    -0.71600
O111        O  0.74556331  0.73147969  0.24327311    -0.71500
O112        O  0.73571894  0.80131412  0.30257834    -0.71500
O113        O  0.70686316  0.77153498  0.23928728    -0.71500
O114        O  0.77445909  0.76173762  0.30674724    -0.71700
V115        V  0.76216914  0.78568872  0.21483947     1.35200
V116        V  0.74109667  0.76684531  0.27176345     1.35200
C117        C  0.79708806  0.76929484  0.28825242     0.77800
C118        C  0.70606208  0.78442094  0.19944334     0.77800
C119        C  0.74558059  0.82305303  0.28405958     0.77700
C120        C  0.75721217  0.72940116  0.20251561     0.77700
O121        O  0.78220181  0.75609663  0.69562848    -0.71500
O122        O  0.71454461  0.76611573  0.76273671    -0.71700
O123        O  0.74197044  0.79427369  0.69443036    -0.71500
O124        O  0.75503520  0.72779428  0.76399300    -0.71600
O125        O  0.77555781  0.75095172  0.82084152    -0.71500
O126        O  0.76380801  0.81720353  0.74996674    -0.71500
O127        O  0.73576935  0.78964212  0.81819066    -0.71500
O128        O  0.80372675  0.77837787  0.75232851    -0.71700
V129        V  0.74882259  0.76148107  0.73036565     1.35200
V130        V  0.76932822  0.78360130  0.78421602     1.35200
C131        C  0.80456651  0.76542674  0.71260198     0.77800
C132        C  0.71349629  0.77987629  0.80159130     0.77800
C133        C  0.75069961  0.81712121  0.71033744     0.77700
C134        C  0.76751117  0.72803686  0.80425376     0.77700
O135        O  0.23062959  0.79550474  0.30665482    -0.71500
O136        O  0.29799364  0.80138366  0.23708881    -0.71700
O137        O  0.27168940  0.83260207  0.30267250    -0.71500
O138        O  0.25715351  0.76430184  0.24114118    -0.71600
O139        O  0.23694022  0.78590661  0.18189247    -0.71500
O140        O  0.24910493  0.85416194  0.24605867    -0.71500
O141        O  0.27680388  0.82393433  0.17997204    -0.71500
O142        O  0.20901800  0.81578385  0.24744996    -0.71700
V143        V  0.26394112  0.79889346  0.27079114     1.35200
V144        V  0.24336902  0.81961115  0.21503336     1.35200
C145        C  0.20821167  0.80421177  0.28852301     0.77800
C146        C  0.29884130  0.81336723  0.19637380     0.77800
C147        C  0.26270731  0.85504477  0.28520074     0.77700
C148        C  0.24501065  0.76341182  0.20064558     0.77700
O149        O  0.27250714  0.82351954  0.66752437    -0.71500
O150        O  0.26167261  0.75569076  0.73509755    -0.71700
O151        O  0.23319537  0.78425560  0.66816815    -0.71500
O152        O  0.30099836  0.79483563  0.73401800    -0.71600
O153        O  0.27914168  0.81462739  0.79320880    -0.71500
O154        O  0.21202796  0.80828819  0.72309396    -0.71500
O155        O  0.23814913  0.77766017  0.78969493    -0.71500
O156        O  0.25305639  0.84546487  0.72689353    -0.71700
V157        V  0.26668035  0.78997700  0.70222815     1.35200
V158        V  0.24598983  0.81109438  0.75707159     1.35200
C159        C  0.26524046  0.84620001  0.68648453     0.77800
C160        C  0.24762179  0.75511393  0.77374837     0.77800
C161        C  0.21102303  0.79459939  0.68417388     0.77700
C162        C  0.30163266  0.80627452  0.77507167     0.77700
O163        O  0.23096178  0.32685264  0.81967345    -0.71500
O164        O  0.23764684  0.25855193  0.75235294    -0.71700
O165        O  0.26925639  0.28654953  0.81521467    -0.71500
O166        O  0.19917138  0.29862491  0.75715180    -0.71600
O167        O  0.21901424  0.31799184  0.69543595    -0.71500
O168        O  0.28896232  0.30932257  0.75710049    -0.71500
O169        O  0.25915862  0.27969946  0.69426881    -0.71500
O170        O  0.24890170  0.34814962  0.75815697    -0.71700
V171        V  0.23463153  0.29307157  0.78498132     1.35200
V172        V  0.25361339  0.31343149  0.72742517     1.35200
C173        C  0.23846321  0.34928056  0.80002657     0.77800
C174        C  0.24998027  0.25746596  0.71200388     0.77800
C175        C  0.29111921  0.29587738  0.79631452     0.77700
C176        C  0.19710459  0.30982627  0.71592666     0.77700
C177        C  0.08444255  0.33917408  0.58854378    -0.27300
C178        C  0.09140123  0.31655637  0.61815623     0.02300
C179        C  0.07283101  0.29433680  0.62232379     0.30400
C180        C  0.04809100  0.29460259  0.59611792    -0.19100
C181        C  0.04161410  0.31671047  0.56509325    -0.28500
C182        C  0.05965562  0.33945885  0.56235818     0.44400
C183        C  0.11844614  0.31583160  0.64330531     0.05600
O184        O  0.07912139  0.27184234  0.65062746    -0.57000
H185        H  0.03440715  0.27696206  0.59848375     0.18500
O186        O  0.05365768  0.36165190  0.53315386    -0.63700
H187        H  0.09840269  0.35654827  0.58546496     0.17000
C188        C  0.14327110  0.31689230  0.61690507     0.29200
C189        C  0.16868700  0.31542536  0.64109860    -0.24600
C190        C  0.16986365  0.31265551  0.69172511    -0.23900
C191        C  0.14489890  0.31161098  0.71811756     0.40700
C192        C  0.11949645  0.31336206  0.69387447    -0.26400
O193        O  0.14284505  0.31783739  0.56725301    -0.58300
H194        H  0.18753485  0.31575945  0.61997614     0.16300
O195        O  0.14504899  0.30956177  0.76766295    -0.59700
H196        H  0.10051558  0.31269990  0.71462245     0.14800
H197        H  0.03929815  0.37229074  0.55074384     0.46600
H198        H  0.14644442  0.33741861  0.55873387     0.42000
H199        H  0.14166060  0.28974985  0.77472058     0.45500
H200        H  0.08966002  0.25920000  0.62923170     0.36900
C201        C  0.14795715  0.32600305  0.40506640    -0.27300
C202        C  0.12284433  0.32174768  0.38086845     0.02300
C203        C  0.12295019  0.31667931  0.33074435     0.30400
C204        C  0.14797153  0.31540484  0.30565303    -0.19100
C205        C  0.17325215  0.31910443  0.32985391    -0.28500
C206        C  0.17304980  0.32483913  0.37997421     0.44400
C207        C  0.09673398  0.32074929  0.40849372     0.05600
O208        O  0.09873452  0.31211180  0.30619202    -0.57000
H209        H  0.14756352  0.31108955  0.26718460     0.18500
O210        O  0.19723321  0.32792058  0.40532029    -0.63700
H211        H  0.14810928  0.32980894  0.44372311     0.17000
C212        C  0.09301319  0.30090253  0.44520639     0.29200
C213        C  0.06753719  0.29871795  0.46858168    -0.24600
C214        C  0.04565225  0.31666293  0.45686128    -0.23900
C215        C  0.04949612  0.33672765  0.42036121     0.40700
C216        C  0.07484998  0.33854431  0.39629825    -0.26400
O217        O  0.11398358  0.28312035  0.45773759    -0.58300
H218        H  0.06480085  0.28275970  0.49569018     0.16300
O219        O  0.02857028  0.35455211  0.40776454    -0.59700
H220        H  0.07746841  0.35386361  0.36800504     0.14800
H221        H  0.20007410  0.34816730  0.40762560     0.46600
H222        H  0.11224164  0.26729042  0.43520868     0.42000
H223        H  0.02899463  0.36935454  0.43253125     0.45500
H224        H  0.09467523  0.29221373  0.31103195     0.36900
C225        C  0.90723910  0.27056192  0.42070704    -0.27300
C226        C  0.89665496  0.29191224  0.39164929     0.02300
C227        C  0.91114942  0.31695827  0.38775582     0.30400
C228        C  0.93528198  0.32092866  0.41461822    -0.19100
C229        C  0.94505612  0.30016732  0.44580292    -0.28500
C230        C  0.93133399  0.27458941  0.44788908     0.44400
C231        C  0.86972753  0.28852736  0.36749990     0.05600
O232        O  0.90152136  0.33784696  0.35855698    -0.57000
H233        H  0.94592713  0.34056055  0.41236194     0.18500
O234        O  0.94156664  0.25346051  0.47596458    -0.63700
H235        H  0.89637458  0.25106832  0.42335055     0.17000
C236        C  0.86625366  0.26951836  0.32964530     0.29200
C237        C  0.84044097  0.26684911  0.30730743    -0.24600
C238        C  0.81774506  0.28286210  0.32254092    -0.23900
C239        C  0.82138361  0.30184387  0.36079151     0.40700
C240        C  0.84728280  0.30465485  0.38265492    -0.26400
O241        O  0.88796773  0.25354544  0.31416677    -0.58300
H242        H  0.83817044  0.25207343  0.27817054     0.16300
O243        O  0.80004547  0.31831843  0.37626913    -0.59700
H244        H  0.84985179  0.31938205  0.41182424     0.14800
H245        H  0.92824541  0.25132639  0.50296403     0.46600
H246        H  0.89849583  0.26550401  0.29160340     0.42000
H247        H  0.79209999  0.30853143  0.40458422     0.45500
H248        H  0.90893622  0.33366437  0.32591239     0.36900
C249        C  0.84537907  0.31505874  0.64115418    -0.27300
C250        C  0.86202099  0.29230661  0.62834218     0.02300
C251        C  0.85335439  0.26554414  0.64227360     0.30400
C252        C  0.82951885  0.26211031  0.67027599    -0.19100
C253        C  0.81305428  0.28484109  0.68283813    -0.28500
C254        C  0.82080690  0.31141718  0.66732331     0.44400
C255        C  0.88873839  0.29660335  0.60224257     0.05600
O256        O  0.86783470  0.24247799  0.62835579    -0.57000
H257        H  0.82345106  0.24146757  0.68115977     0.18500
O258        O  0.80466438  0.33394692  0.67816368    -0.63700
H259        H  0.85163363  0.33585773  0.63187405     0.17000
C260        C  0.89111769  0.31521046  0.56296653     0.29200
C261        C  0.91667374  0.31882172  0.53987083    -0.24600
C262        C  0.94003360  0.30342589  0.55394630    -0.23900
C263        C  0.93757666  0.28474272  0.59291450     0.40700
C264        C  0.91242617  0.28199626  0.61728691    -0.26400
O265        O  0.86838611  0.32904998  0.54547571    -0.58300
H266        H  0.91813799  0.33368682  0.51064934     0.16300
O267        O  0.95959450  0.26875701  0.60723046    -0.59700
H268        H  0.91151225  0.26819387  0.64815212     0.14800
H269        H  0.81569528  0.34514130  0.70112023     0.46600
H270        H  0.87159296  0.34882054  0.55302399     0.42000
H271        H  0.95796917  0.25142815  0.58834209     0.45500
H272        H  0.86203663  0.23894897  0.59447878     0.36900
C273        C  0.75094818  0.10541857  0.60922292    -0.27300
C274        C  0.72697533  0.12165744  0.61436380     0.02300
C275        C  0.70204522  0.11236678  0.59364608     0.30400
C276        C  0.70148901  0.08758248  0.56767385    -0.19100
C277        C  0.72552875  0.07168198  0.56199717    -0.28500
C278        C  0.75031039  0.08052459  0.58343458     0.44400
C279        C  0.72833040  0.14833845  0.64080908     0.05600
O280        O  0.67808595  0.12728815  0.59874897    -0.57000
H281        H  0.68220470  0.08070960  0.55187702     0.18500
O282        O  0.77394583  0.06497090  0.57920238    -0.63700
H283        H  0.77037301  0.11229432  0.62446074     0.17000
C284        C  0.73997976  0.14981833  0.68744157     0.29200
C285        C  0.74200924  0.17531069  0.71098019    -0.24600
C286        C  0.73266942  0.19983923  0.68879304    -0.23900
C287        C  0.72032735  0.19821708  0.64254791     0.40700
C288        C  0.71846724  0.17268184  0.61885907    -0.26400
O289        O  0.74862959  0.12629902  0.71094826    -0.58300
H290        H  0.75113968  0.17578378  0.74680029     0.16300
O291        O  0.71057204  0.22144293  0.61958887    -0.59700
H292        H  0.70964622  0.17197629  0.58280477     0.14800
H293        H  0.78585830  0.07521745  0.55621425     0.46600
H294        H  0.76910268  0.12726599  0.71131402     0.42000
H295        H  0.69052094  0.22200735  0.62696638     0.45500
H296        H  0.66947635  0.12020603  0.62887086     0.36900
C297        C  0.74967395  0.10929837  0.41425791    -0.27300
C298        C  0.72589654  0.12550041  0.40761277     0.02300
C299        C  0.70031251  0.11600671  0.42516808     0.30400
C300        C  0.69876872  0.09035552  0.44863539    -0.19100
C301        C  0.72267824  0.07444436  0.45583118    -0.28500
C302        C  0.74822102  0.08401063  0.43861597     0.44400
C303        C  0.72808249  0.15175033  0.38062374     0.05600
O304        O  0.67664473  0.13111333  0.41766190    -0.57000
H305        H  0.67896325  0.08289746  0.46129118     0.18500
O306        O  0.77169658  0.06837126  0.44455271    -0.63700
H307        H  0.76943361  0.11636122  0.40065857     0.17000
C308        C  0.72206802  0.17720962  0.40272528     0.29200
C309        C  0.72483312  0.20177625  0.37638135    -0.24600
C310        C  0.73398363  0.20143400  0.32803063    -0.23900
C311        C  0.74021535  0.17578251  0.30621379     0.40700
C312        C  0.73719272  0.15127239  0.33251978    -0.26400
O313        O  0.71390174  0.17832453  0.45022767    -0.58300
H314        H  0.72017707  0.22117027  0.39417185     0.16300
O315        O  0.74877356  0.17427674  0.25896857    -0.59700
H316        H  0.74194779  0.13173542  0.31524913     0.14800
H317        H  0.78289655  0.07829660  0.46900147     0.46600
H318        H  0.73128806  0.17871871  0.46927107     0.42000
H319        H  0.76924635  0.17366607  0.26055053     0.45500
H320        H  0.67207063  0.13927077  0.44958495     0.36900
C321        C  0.70589859  0.94095424  0.38677482    -0.27300
C322        C  0.73068863  0.92583691  0.38639654     0.02300
C323        C  0.75286225  0.93426414  0.41567113     0.30400
C324        C  0.75021843  0.95770551  0.44469815    -0.19100
C325        C  0.72543963  0.97281022  0.44543099    -0.28500
C326        C  0.70318850  0.96439647  0.41607880     0.44400
C327        C  0.73295520  0.90027993  0.35776633     0.05600
O328        O  0.77707371  0.91945460  0.41654412    -0.57000
H329        H  0.76752940  0.96409192  0.46689064     0.18500
O330        O  0.67871709  0.97878334  0.41618549    -0.63700
H331        H  0.68862489  0.93441096  0.36463117     0.17000
C332        C  0.71929243  0.87626554  0.37298475     0.29200
C333        C  0.72350034  0.85144789  0.34835922    -0.24600
C334        C  0.74127361  0.85006950  0.30814374    -0.23900
C335        C  0.75469271  0.87440240  0.29251598     0.40700
C336        C  0.75043940  0.89927425  0.31737139    -0.26400
O337        O  0.70292015  0.87655627  0.41348747    -0.58300
H338        H  0.71297960  0.83313510  0.36128066     0.16300
O339        O  0.77224276  0.87413109  0.25356593    -0.59700
H340        H  0.76118592  0.91773158  0.30567199     0.14800
H341        H  0.66800748  0.97099715  0.44357223     0.46600
H342        H  0.68405791  0.88083618  0.40149426     0.42000
H343        H  0.79078435  0.87016777  0.26732841     0.45500
H344        H  0.77474717  0.90577842  0.44302560     0.36900
C345        C  0.74355968  0.89319689  0.67878783    -0.27300
C346        C  0.73846461  0.89203835  0.62882873     0.02300
C347        C  0.73678392  0.86613277  0.60593427     0.30400
C348        C  0.74044296  0.84187125  0.63304121    -0.19100
C349        C  0.74590320  0.84301603  0.68298961    -0.28500
C350        C  0.74713192  0.86901286  0.70589685     0.44400
C351        C  0.73567277  0.91815226  0.60117172     0.05600
O352        O  0.73320648  0.86442998  0.55672327    -0.57000
H353        H  0.73965326  0.82213450  0.61463709     0.18500
O354        O  0.75179697  0.87109934  0.75474604    -0.63700
H355        H  0.74470240  0.91301169  0.69689406     0.17000
C356        C  0.71163007  0.92421337  0.57427998     0.29200
C357        C  0.70922679  0.94951199  0.54997835    -0.24600
C358        C  0.73044943  0.96915900  0.55246380    -0.23900
C359        C  0.75449593  0.96309889  0.57921884     0.40700
C360        C  0.75698607  0.93772739  0.60326388    -0.26400
O361        O  0.69013686  0.90584116  0.57233986    -0.58300
H362        H  0.69055451  0.95402685  0.52972432     0.16300
O363        O  0.77602416  0.98146707  0.58058907    -0.59700
H364        H  0.77565872  0.93326967  0.62357507     0.14800
H365        H  0.73322846  0.87021200  0.76983569     0.46600
H366        H  0.67964271  0.90875897  0.60273033     0.42000
H367        H  0.77479389  0.99045284  0.61275543     0.45500
H368        H  0.71456553  0.85639719  0.55200789     0.36900
C369        C  0.15478555  0.79112345  0.38668927    -0.27300
C370        C  0.13033580  0.78982322  0.35933818     0.02300
C371        C  0.13157337  0.79434158  0.30901378     0.30400
C372        C  0.15695515  0.79971954  0.28673956    -0.19100
C373        C  0.18154925  0.80028231  0.31382549    -0.28500
C374        C  0.18023943  0.79624035  0.36436920     0.44400
C375        C  0.10371792  0.78355189  0.38355739     0.05600
O376        O  0.10816643  0.79292840  0.28108219    -0.57000
H377        H  0.15746039  0.80267329  0.24785315     0.18500
O378        O  0.20364497  0.79728944  0.39236340    -0.63700
H379        H  0.15412598  0.78824266  0.42558436     0.17000
C380        C  0.10074066  0.75967985  0.41236246     0.29200
C381        C  0.07564207  0.75438741  0.43567278    -0.24600
C382        C  0.05340572  0.77294581  0.43163433    -0.23900
C383        C  0.05616621  0.79654132  0.40209232     0.40700
C384        C  0.08115188  0.80165499  0.37821353    -0.26400
O385        O  0.12205886  0.74108532  0.41696278    -0.58300
H386        H  0.07370964  0.73602676  0.45793152     0.16300
O387        O  0.03485472  0.81512742  0.39744792    -0.59700
H388        H  0.08315165  0.82018546  0.35641389     0.14800
H389        H  0.20535455  0.81691741  0.40217411     0.46600
H390        H  0.12954663  0.74397201  0.45001371     0.42000
H391        H  0.03638164  0.82741984  0.42601042     0.45500
H392        H  0.10656690  0.77321238  0.27176038     0.36900
C393        C  0.09266401  0.75523253  0.59192194    -0.27300
C394        C  0.10695825  0.78014009  0.58581381     0.02300
C395        C  0.09588772  0.80096221  0.55593015     0.30400
C396        C  0.07062704  0.79673068  0.53260698    -0.19100
C397        C  0.05631782  0.77176868  0.53854466    -0.28500
C398        C  0.06744189  0.75095910  0.56849592     0.44400
C399        C  0.13352526  0.78409195  0.61070237     0.05600
O400        O  0.11013947  0.82501447  0.54800335    -0.57000
H401        H  0.06224390  0.81287707  0.50959553     0.18500
O402        O  0.05393070  0.72632613  0.57465035    -0.63700
H403        H  0.10112516  0.73910773  0.61491056     0.17000
C404        C  0.13608584  0.80343488  0.64827730     0.29200
C405        C  0.16144094  0.80669111  0.67177164    -0.24600
C406        C  0.18453089  0.79075748  0.65832962    -0.23900
C407        C  0.18172575  0.77114663  0.62079846     0.40700
C408        C  0.15632633  0.76797682  0.59734688    -0.26400
O409        O  0.11388215  0.81914688  0.66241706    -0.58300
H410        H  0.16300033  0.82177564  0.70056629     0.16300
O411        O  0.20355292  0.75489811  0.60674554    -0.59700
H412        H  0.15439821  0.75291760  0.56855077     0.14800
H413        H  0.06058767  0.71434508  0.54798166     0.46600
H414        H  0.10349873  0.80735619  0.68544902     0.42000
H415        H  0.20214032  0.73790115  0.62672481     0.45500
H416        H  0.10096233  0.83905020  0.56863117     0.36900
C417        C  0.91331733  0.73563742  0.57400314    -0.27300
C418        C  0.90670663  0.75776347  0.60482542     0.02300
C419        C  0.92493072  0.78036055  0.60799641     0.30400
C420        C  0.94906574  0.78075534  0.58034620    -0.19100
C421        C  0.95528796  0.75903418  0.54865460    -0.28500
C422        C  0.93748323  0.73611667  0.54615342     0.44400
C423        C  0.88055585  0.75760636  0.63279157     0.05600
O424        O  0.91897504  0.80253519  0.63707448    -0.57000
H425        H  0.96260342  0.79851221  0.58251328     0.18500
O426        O  0.94338994  0.71426100  0.51633957    -0.63700
H427        H  0.89970891  0.71795578  0.57158528     0.17000
C428        C  0.85487998  0.75410889  0.60953542     0.29200
C429        C  0.83035525  0.75593620  0.63619193    -0.24600
C430        C  0.83089041  0.76167977  0.68606799    -0.23900
C431        C  0.85665596  0.76438623  0.70950628     0.40700
C432        C  0.88115094  0.76231293  0.68290703    -0.26400
O433        O  0.85347178  0.74974433  0.56052874    -0.58300
H434        H  0.81082335  0.75371733  0.61739664     0.16300
O435        O  0.85821658  0.76923260  0.75833582    -0.59700
H436        H  0.90074686  0.76463012  0.70146574     0.14800
H437        H  0.95670418  0.70266083  0.53472207     0.46600
H438        H  0.85342203  0.76845314  0.54577076     0.42000
H439        H  0.85799986  0.75066766  0.77363604     0.45500
H440        H  0.90758857  0.81508644  0.61672757     0.36900
C441        C  0.84955164  0.75514542  0.38809366    -0.27300
C442        C  0.87400899  0.76369088  0.36570339     0.02300
C443        C  0.87333872  0.77337921  0.31777521     0.30400
C444        C  0.84825630  0.77463951  0.29275752    -0.19100
C445        C  0.82349782  0.76630871  0.31500750    -0.28500
C446        C  0.82441586  0.75614503  0.36304409     0.44400
C447        C  0.90019543  0.76294737  0.39276985     0.05600
O448        O  0.89709016  0.78194505  0.29529831    -0.57000
H449        H  0.84820712  0.78248043  0.25598898     0.18500
O450        O  0.80088387  0.74772213  0.38634902    -0.63700
H451        H  0.84998725  0.74767085  0.42511273     0.17000
C452        C  0.90560051  0.78253199  0.42901444     0.29200
C453        C  0.93118323  0.78249200  0.45251128    -0.24600
C454        C  0.95130659  0.76255888  0.44115262    -0.23900
C455        C  0.94566771  0.74273159  0.40523815     0.40700
C456        C  0.92027840  0.74315093  0.38104845    -0.26400
O457        O  0.88641609  0.80243184  0.44024792    -0.58300
H458        H  0.93541817  0.79818546  0.47940616     0.16300
O459        O  0.96487248  0.72295619  0.39345201    -0.59700
H460        H  0.91620086  0.72801519  0.35309777     0.14800
H461        H  0.79989735  0.72750601  0.38074717     0.46600
H462        H  0.87565970  0.79462242  0.46755505     0.42000
H463        H  0.96238072  0.70802857  0.41770327     0.45500
H464        H  0.89938560  0.80153626  0.30498050     0.36900
C465        C  0.29297427  0.15363981  0.42329184    -0.27300
C466        C  0.26762801  0.15958520  0.40062789     0.02300
C467        C  0.24631401  0.13981557  0.40201629     0.30400
C468        C  0.25060649  0.11449356  0.42531920    -0.19100
C469        C  0.27582677  0.10871692  0.44818490    -0.28500
C470        C  0.29713330  0.12838732  0.44702455     0.44400
C471        C  0.26371470  0.18618534  0.37486408     0.05600
O472        O  0.22110729  0.14520763  0.38121397    -0.57000
H473        H  0.23402697  0.09950103  0.42641620     0.18500
O474        O  0.32203059  0.12308470  0.46898174    -0.63700
H475        H  0.30968885  0.16846262  0.42204503     0.17000
C476        C  0.26839847  0.21156233  0.39822870     0.29200
C477        C  0.26438203  0.23639173  0.37306351    -0.24600
C478        C  0.25567265  0.23642664  0.32447951    -0.23900
C479        C  0.25090052  0.21093658  0.30122930     0.40700
C480        C  0.25515336  0.18614791  0.32631718    -0.26400
O481        O  0.27571174  0.21229799  0.44623131    -0.58300
H482        H  0.26780912  0.25569073  0.39193260     0.16300
O483        O  0.24280140  0.20990299  0.25366125    -0.59700
H484        H  0.25184552  0.16675333  0.30766945     0.14800
H485        H  0.33348295  0.11404892  0.44378284     0.46600
H486        H  0.29556423  0.21733047  0.44659760     0.42000
H487        H  0.22239161  0.20813707  0.25459261     0.45500
H488        H  0.20994974  0.15394536  0.40713856     0.36900
C489        C  0.24343653  0.18260110  0.67174635    -0.27300
C490        C  0.26342991  0.18133567  0.63502842     0.02300
C491        C  0.27857957  0.20519823  0.62337626     0.30400
C492        C  0.27383869  0.22975526  0.64871317    -0.19100
C493        C  0.25410804  0.23104439  0.68597941    -0.28500
C494        C  0.23865145  0.20718715  0.69709092     0.44400
C495        C  0.26759633  0.15526470  0.60802991     0.05600
O496        O  0.29701978  0.20504499  0.58563557    -0.57000
H497        H  0.28573968  0.24787185  0.63903978     0.18500
O498        O  0.21861287  0.20767348  0.73214854    -0.63700
H499        H  0.23144769  0.16442218  0.68073218     0.17000
C500        C  0.29385548  0.14263339  0.60512351     0.29200
C501        C  0.29730882  0.11839651  0.57828168    -0.24600
C502        C  0.27478404  0.10641464  0.55450586    -0.23900
C503        C  0.24840475  0.11843126  0.55863237     0.40700
C504        C  0.24495837  0.14278690  0.58507515    -0.26400
O505        O  0.31620257  0.15368956  0.62862668    -0.58300
H506        H  0.31760734  0.10898832  0.57574746     0.16300
O507        O  0.22595783  0.10662344  0.53657243    -0.59700
H508        H  0.22461610  0.15212540  0.58730989     0.14800
H509        H  0.20141341  0.21317547  0.71503517     0.46600
H510        H  0.31511139  0.14648666  0.66220747     0.42000
H511        H  0.21943978  0.09228044  0.55954863     0.45500
H512        H  0.31550373  0.20737891  0.60062539     0.36900
C513        C  0.25838594  0.97098510  0.59950128    -0.27300
C514        C  0.28107905  0.95292768  0.59644239     0.02300
C515        C  0.30447724  0.96093242  0.56958778     0.30400
C516        C  0.30476335  0.98656282  0.54589368    -0.19100
C517        C  0.28202277  0.00452423  0.54913326    -0.28500
C518        C  0.25876085  0.99661880  0.57619794     0.44400
C519        C  0.27945266  0.92554858  0.62032286     0.05600
O520        O  0.32710133  0.94388844  0.56638838    -0.57000
H521        H  0.32273814  0.99247780  0.52498603     0.18500
O522        O  0.23608755  0.01362958  0.57921731    -0.63700
H523        H  0.24002977  0.96493738  0.61922640     0.17000
C524        C  0.27259203  0.92340177  0.66965659     0.29200
C525        C  0.26841998  0.89742420  0.69056475    -0.24600
C526        C  0.27094447  0.87314977  0.66301196    -0.23900
C527        C  0.27871458  0.87528447  0.61391426     0.40700
C528        C  0.28277245  0.90136071  0.59292634    -0.26400
O529        O  0.27051848  0.94661591  0.69792747    -0.58300
H530        H  0.26307749  0.89636471  0.72860616     0.16300
O531        O  0.28119070  0.85220138  0.58551553    -0.59700
H532        H  0.28773135  0.90272667  0.55474943     0.14800
H533        H  0.22303777  0.00676738  0.55431130     0.46600
H534        H  0.25048558  0.94903495  0.70429095     0.42000
H535        H  0.30110138  0.84729972  0.58655642     0.45500
H536        H  0.34000478  0.95046628  0.59176590     0.36900
C537        C  0.29993687  0.97437126  0.38401052    -0.27300
C538        C  0.27654551  0.95750688  0.38860341     0.02300
C539        C  0.25522625  0.96517404  0.42039916     0.30400
C540        C  0.25730795  0.98961088  0.44687212    -0.19100
C541        C  0.28060864  0.00656321  0.44236478    -0.28500
C542        C  0.30202068  0.99889266  0.41062139     0.44400
C543        C  0.27424953  0.93193904  0.36002675     0.05600
O544        O  0.23271968  0.94840073  0.42688776    -0.57000
H545        H  0.24067173  0.99536794  0.47105324     0.18500
O546        O  0.32498616  0.01517240  0.40547889    -0.63700
H547        H  0.31645343  0.96856619  0.35957043     0.17000
C548        C  0.25414268  0.92956581  0.32351117     0.29200
C549        C  0.25097472  0.90459656  0.29881546    -0.24600
C550        C  0.26753927  0.88158740  0.31033364    -0.23900
C551        C  0.28797404  0.88419889  0.34665194     0.40700
C552        C  0.29137257  0.90937301  0.37079152    -0.26400
O553        O  0.23714450  0.95141872  0.31235327    -0.58300
H554        H  0.23509330  0.90309841  0.27127052     0.16300
O555        O  0.30497478  0.86245538  0.35845177    -0.59700
H556        H  0.30693697  0.91108438  0.39886939     0.14800
H557        H  0.33731496  0.00991450  0.43271562     0.46600
H558        H  0.24784574  0.96292909  0.28933972     0.42000
H559        H  0.29659960  0.85400482  0.38769189     0.45500
H560        H  0.21760925  0.95715117  0.40794673     0.36900
C561        C  0.75801912  0.39532520  0.18484301    -0.27300
C562        C  0.76058604  0.39499838  0.13432161     0.02300
C563        C  0.76033925  0.36963234  0.10957533     0.30400
C564        C  0.75741899  0.34496530  0.13555723    -0.19100
C565        C  0.75437806  0.34525325  0.18612801    -0.28500
C566        C  0.75473606  0.37073639  0.21078091     0.44400
C567        C  0.76459425  0.42126757  0.10821611     0.05600
O568        O  0.76432888  0.36873950  0.06040487    -0.57000
H569        H  0.75737647  0.32557694  0.11599258     0.18500
O570        O  0.75310434  0.37178402  0.26032253    -0.63700
H571        H  0.75855746  0.41476780  0.20423497     0.17000
C572        C  0.74571885  0.43018208  0.07261815     0.29200
C573        C  0.75003254  0.45530497  0.04875739    -0.24600
C574        C  0.77336092  0.47135903  0.05923717    -0.23900
C575        C  0.79192672  0.46267785  0.09543794     0.40700
C576        C  0.78739633  0.43781623  0.11983556    -0.26400
O577        O  0.72251292  0.41500797  0.06246484    -0.58300
H578        H  0.73531236  0.46215986  0.02163548     0.16300
O579        O  0.81467524  0.47822418  0.10681203    -0.59700
H580        H  0.80193519  0.43119116  0.14742642     0.14800
H581        H  0.73356384  0.37647618  0.26745031     0.46600
H582        H  0.72480579  0.40862475  0.02858873     0.42000
H583        H  0.82911678  0.47246179  0.08343958     0.45500
H584        H  0.74654425  0.36235266  0.04655429     0.36900
C585        C  0.76609461  0.67371486  0.10704781    -0.27300
C586        C  0.76484120  0.64962138  0.13520674     0.02300
C587        C  0.76138398  0.65176953  0.18561269     0.30400
C588        C  0.75893057  0.67785834  0.20710498    -0.19100
C589        C  0.76017943  0.70209624  0.17892850    -0.28500
C590        C  0.76385201  0.69978279  0.12843537     0.44400
C591        C  0.76768153  0.62249335  0.11124432     0.05600
O592        O  0.76035082  0.62852915  0.21408898    -0.57000
H593        H  0.75623748  0.67911862  0.24597691     0.18500
O594        O  0.76510933  0.72281056  0.09949417    -0.63700
H595        H  0.76902671  0.67228675  0.06823444     0.17000
C596        C  0.74868316  0.61422818  0.07551040     0.29200
C597        C  0.75289469  0.58952452  0.05036414    -0.24600
C598        C  0.77615727  0.57301934  0.05993026    -0.23900
C599        C  0.79486602  0.58098429  0.09632001     0.40700
C600        C  0.79048982  0.60555190  0.12189781    -0.26400
O601        O  0.72564103  0.62989753  0.06581356    -0.58300
H602        H  0.73805470  0.58327409  0.02312063     0.16300
O603        O  0.81769946  0.56512654  0.10648307    -0.59700
H604        H  0.80532725  0.61180710  0.14913478     0.14800
H605        H  0.74577388  0.72635736  0.08919564     0.46600
H606        H  0.72981743  0.63978371  0.03520258     0.42000
H607        H  0.83220493  0.57177067  0.08398865     0.45500
H608        H  0.74057477  0.62323216  0.21485509     0.36900
C609        C  0.76364859  0.60421232  0.89419986    -0.27300
C610        C  0.78333811  0.62456817  0.90457317     0.02300
C611        C  0.80381255  0.61921413  0.93969533     0.30400
C612        C  0.80429103  0.59373643  0.96386207    -0.19100
C613        C  0.78445184  0.57345401  0.95346925    -0.28500
C614        C  0.76420067  0.57877109  0.91805026     0.44400
C615        C  0.78159988  0.65139907  0.87898956     0.05600
O616        O  0.82328733  0.63874488  0.95077239    -0.57000
H617        H  0.81999403  0.58985774  0.99106028     0.18500
O618        O  0.74391103  0.55979256  0.90852972    -0.63700
H619        H  0.74738376  0.60827324  0.86811919     0.17000
C620        C  0.78074445  0.65237039  0.82807312     0.29200
C621        C  0.77630940  0.67752969  0.80433875    -0.24600
C622        C  0.77281288  0.70203857  0.83067276    -0.23900
C623        C  0.77428303  0.70119825  0.88166040     0.40700
C624        C  0.77866781  0.67596661  0.90545204    -0.26400
O625        O  0.78489309  0.62886496  0.80127353    -0.58300
H626        H  0.77572269  0.67786742  0.76511765     0.16300
O627        O  0.77062818  0.72470467  0.90861697    -0.59700
H628        H  0.77889427  0.67544525  0.94468097     0.14800
H629        H  0.74923442  0.55115091  0.87736090     0.46600
H630        H  0.76652074  0.62410652  0.78774620     0.42000
H631        H  0.75039987  0.72612019  0.91388122     0.45500
H632        H  0.83865289  0.63544482  0.92775358     0.36900
C633        C  0.75601836  0.44272065  0.89228266    -0.27300
C634        C  0.77159294  0.41942320  0.90591332     0.02300
C635        C  0.79198860  0.42226114  0.94210372     0.30400
C636        C  0.79627691  0.44793113  0.96419190    -0.19100
C637        C  0.77972826  0.47086528  0.95214657    -0.28500
C638        C  0.75966751  0.46811323  0.91545609     0.44400
C639        C  0.76631468  0.39244307  0.88192716     0.05600
O640        O  0.80727383  0.39992562  0.95720775    -0.57000
H641        H  0.81188926  0.44968931  0.99215352     0.18500
O642        O  0.74289998  0.48990790  0.90295646    -0.63700
H643        H  0.74061029  0.44113739  0.86394089     0.17000
C644        C  0.73918583  0.38209148  0.87697963     0.29200
C645        C  0.73445698  0.35764602  0.85118916    -0.24600
C646        C  0.75660074  0.34262428  0.83174636    -0.23900
C647        C  0.78372267  0.35233996  0.83807333     0.40700
C648        C  0.78841783  0.37721840  0.86248019    -0.26400
O649        O  0.71717620  0.39555259  0.89762086    -0.58300
H650        H  0.71352406  0.35006430  0.84728726     0.16300
O651        O  0.80574650  0.33787324  0.81970644    -0.59700
H652        H  0.80936732  0.38485700  0.86546542     0.14800
H653        H  0.72681626  0.48867263  0.92506869     0.46600
H654        H  0.71731215  0.38976662  0.93210018     0.42000
H655        H  0.80914799  0.34606817  0.78737433     0.45500
H656        H  0.79629686  0.39138969  0.98355687     0.36900
C657        C  0.59757856  0.82915413  0.07255163    -0.27300
C658        C  0.60253650  0.80531497  0.10053327     0.02300
C659        C  0.58219968  0.78446116  0.10216461     0.30400
C660        C  0.55771185  0.78753653  0.07593489    -0.19100
C661        C  0.55348152  0.81072034  0.04643658    -0.28500
C662        C  0.57341440  0.83176579  0.04511531     0.44400
C663        C  0.62917881  0.80182891  0.12663554     0.05600
O664        O  0.58639200  0.76057426  0.12803429    -0.57000
H665        H  0.54244140  0.77120661  0.07695825     0.18500
O666        O  0.56968984  0.85466721  0.01644542    -0.63700
H667        H  0.61254881  0.84572638  0.07164818     0.17000
C668        C  0.65464638  0.80636362  0.10320327     0.29200
C669        C  0.67945020  0.80070479  0.12742499    -0.24600
C670        C  0.67945830  0.79052367  0.17510118    -0.23900
C671        C  0.65397661  0.78694221  0.19906613     0.40700
C672        C  0.62922188  0.79271317  0.17493239    -0.26400
O673        O  0.65552789  0.81482012  0.05576666    -0.58300
H674        H  0.69874127  0.80385188  0.10835406     0.16300
O675        O  0.65289242  0.77763814  0.24596995    -0.59700
H676        H  0.60990732  0.78986550  0.19407279     0.14800
H677        H  0.55708300  0.86690238  0.03494039     0.46600
H678        H  0.66183489  0.83430311  0.05674787     0.42000
H679        H  0.65327670  0.79454358  0.26620051     0.45500
H680        H  0.59453524  0.74733673  0.10464879     0.36900
C681        C  0.42058190  0.83491289  0.09819777    -0.27300
C682        C  0.40127641  0.81396856  0.08942305     0.02300
C683        C  0.40721574  0.79340443  0.05501573     0.30400
C684        C  0.43236965  0.79387855  0.03016357    -0.19100
C685        C  0.45163229  0.81500125  0.03857520    -0.28500
C686        C  0.44554686  0.83562953  0.07286998     0.44400
C687        C  0.37509497  0.81376037  0.11673133     0.05600
O688        O  0.38869961  0.77264722  0.04587130    -0.57000
H689        H  0.43696283  0.77756994  0.00457597     0.18500
O690        O  0.46384104  0.85661598  0.08174891    -0.63700
H691        H  0.41611532  0.85092064  0.12445011     0.17000
C692        C  0.37512842  0.81038148  0.16728852     0.29200
C693        C  0.35016537  0.81039290  0.19272266    -0.24600
C694        C  0.32491054  0.81437634  0.16850254    -0.23900
C695        C  0.32499147  0.81808113  0.11774649     0.40700
C696        C  0.34998103  0.81758754  0.09226825    -0.26400
O697        O  0.39943229  0.80616678  0.19189078    -0.58300
H698        H  0.35061670  0.80739301  0.23160239     0.16300
O699        O  0.30082898  0.82191202  0.09255905    -0.59700
H700        H  0.34980090  0.82039001  0.05332109     0.14800
H701        H  0.45928088  0.87115757  0.05764925     0.46600
H702        H  0.40419972  0.82439993  0.20589390     0.42000
H703        H  0.29472367  0.80308470  0.08337773     0.45500
H704        H  0.39426765  0.75724325  0.06757277     0.36900
C705        C  0.41121831  0.83749179  0.90741230    -0.27300
C706        C  0.40412902  0.81414669  0.88015705     0.02300
C707        C  0.42233621  0.79145019  0.87822162     0.30400
C708        C  0.44734778  0.79226893  0.90336225    -0.19100
C709        C  0.45427993  0.81538963  0.93124468    -0.28500
C710        C  0.43624983  0.83829526  0.93267237     0.44400
C711        C  0.37777808  0.81350871  0.85348499     0.05600
O712        O  0.41554784  0.76815800  0.85266532    -0.57000
H713        H  0.46097800  0.77446084  0.90244424     0.18500
O714        O  0.44274310  0.86132596  0.95916881    -0.63700
H715        H  0.39736104  0.85510988  0.90886963     0.17000
C716        C  0.35237405  0.81436333  0.87809529     0.29200
C717        C  0.32766116  0.81254445  0.85203694    -0.24600
C718        C  0.32794198  0.80953247  0.80144165    -0.23900
C719        C  0.35348794  0.80922719  0.77686730     0.40700
C720        C  0.37813222  0.81109520  0.80297602    -0.26400
O721        O  0.35152466  0.81636210  0.92761609    -0.58300
H722        H  0.30826672  0.81279049  0.87159752     0.16300
O723        O  0.35466446  0.80713428  0.72739271    -0.59700
H724        H  0.39764347  0.81061775  0.78376187     0.14800
H725        H  0.45610806  0.87172539  0.93900426     0.46600
H726        H  0.35345035  0.79711791  0.93965230     0.42000
H727        H  0.35440680  0.82646640  0.71535947     0.45500
H728        H  0.40454848  0.75674040  0.87539774     0.36900
C729        C  0.65956459  0.79830026  0.89656141    -0.27300
C730        C  0.63505789  0.79382196  0.87069547     0.02300
C731        C  0.63636660  0.78477848  0.82247773     0.30400
C732        C  0.66201311  0.78018633  0.80065409    -0.19100
C733        C  0.68673248  0.78472124  0.82622753    -0.28500
C734        C  0.68530990  0.79410250  0.87458365     0.44400
C735        C  0.60812342  0.79799462  0.89454991     0.05600
O736        O  0.61265054  0.78025004  0.79646536    -0.57000
H737        H  0.66251077  0.77321169  0.76341956     0.18500
O738        O  0.70884379  0.79849032  0.90116638    -0.63700
H739        H  0.65869432  0.80517455  0.93385410     0.17000
C740        C  0.59922798  0.77976344  0.93092904     0.29200
C741        C  0.57333201  0.78350556  0.95230850    -0.24600
C742        C  0.55647019  0.80604602  0.93935010    -0.23900
C743        C  0.56539662  0.82423189  0.90266595     0.40700
C744        C  0.59098125  0.81996698  0.88020991    -0.26400
O745        O  0.61540345  0.75778202  0.94475833    -0.58300
H746        H  0.56646754  0.76882978  0.97935789     0.16300
O747        O  0.54941089  0.84635166  0.88886712    -0.59700
H748        H  0.59766500  0.83404235  0.85202153     0.14800
H749        H  0.71269769  0.81853001  0.89784941     0.46600
H750        H  0.62501146  0.76397304  0.97455026     0.42000
H751        H  0.55445076  0.86145119  0.91140577     0.45500
H752        H  0.60698325  0.76114354  0.80481638     0.36900
C753        C  0.24196286  0.68655186  0.17394459    -0.27300
C754        C  0.23643910  0.68666402  0.12412092     0.02300
C755        C  0.23271328  0.71202079  0.09990728     0.30400
C756        C  0.23489496  0.73684356  0.12546723    -0.19100
C757        C  0.24101423  0.73683747  0.17524486    -0.28500
C758        C  0.24416800  0.71131842  0.19957187     0.44400
C759        C  0.23457339  0.66017682  0.09783120     0.05600
O760        O  0.22741024  0.71276096  0.05111489    -0.57000
H761        H  0.23242876  0.75615395  0.10597147     0.18500
O762        O  0.24947009  0.71024683  0.24833701    -0.63700
H763        H  0.24442109  0.66713229  0.19311883     0.17000
C764        C  0.25694733  0.64149210  0.09756597     0.29200
C765        C  0.25462752  0.61634731  0.07303554    -0.24600
C766        C  0.23020162  0.60961207  0.04846880    -0.23900
C767        C  0.20776742  0.62815629  0.04903464     0.40700
C768        C  0.21009045  0.65333287  0.07342685    -0.26400
O769        O  0.28148574  0.64817931  0.11948930    -0.58300
H770        H  0.27205241  0.60222081  0.07252824     0.16300
O771        O  0.18348944  0.62177012  0.02605345    -0.59700
H772        H  0.19263907  0.66742117  0.07383492     0.14800
H773        H  0.23106344  0.71098735  0.26405443     0.46600
H774        H  0.28171257  0.63762434  0.15030959     0.42000
H775        H  0.17280132  0.61082836  0.04992438     0.45500
H776        H  0.24580533  0.71190296  0.03537809     0.36900
C777        C  0.24995813  0.47662800  0.11300113    -0.27300
C778        C  0.22798102  0.45793513  0.10909835     0.02300
C779        C  0.20512876  0.46451314  0.07964687     0.30400
C780        C  0.20474932  0.48938039  0.05384625    -0.19100
C781        C  0.22709541  0.50767579  0.05666102    -0.28500
C782        C  0.24959585  0.50144502  0.08710547     0.44400
C783        C  0.22935749  0.43155962  0.13576377     0.05600
O784        O  0.18278071  0.44716735  0.07722522    -0.57000
H785        H  0.18709596  0.49431046  0.03121265     0.18500
O786        O  0.27185875  0.51886111  0.08987682    -0.63700
H787        H  0.26767398  0.47169883  0.13549986     0.17000
C788        C  0.22811704  0.40615929  0.11116089     0.29200
C789        C  0.22997822  0.38143559  0.13709952    -0.24600
C790        C  0.23377949  0.38160074  0.18751291    -0.23900
C791        C  0.23511059  0.40708579  0.21207268     0.40700
C792        C  0.23296930  0.43181239  0.18611550    -0.26400
O793        O  0.22577350  0.40526692  0.06168892    -0.58300
H794        H  0.22923888  0.36207712  0.11749181     0.16300
O795        O  0.23843352  0.40811422  0.26135796    -0.59700
H796        H  0.23404826  0.45128267  0.20534400     0.14800
H797        H  0.26941044  0.52913854  0.12061248     0.46600
H798        H  0.24471750  0.40849172  0.04926465     0.42000
H799        H  0.21943788  0.40749992  0.27476005     0.45500
H800        H  0.18276048  0.43975860  0.04375911     0.36900
C801        C  0.20545020  0.47072861  0.89588328    -0.27300
C802        C  0.22834908  0.45319102  0.90202085     0.02300
C803        C  0.25018791  0.46138955  0.93232042     0.30400
C804        C  0.24916470  0.48704516  0.95551800    -0.19100
C805        C  0.22622376  0.50458281  0.94971071    -0.28500
C806        C  0.20417112  0.49619733  0.91989596     0.44400
C807        C  0.22973234  0.42661768  0.87584824     0.05600
O808        O  0.27301868  0.44482288  0.93807661    -0.57000
H809        H  0.26634626  0.49331473  0.97811956     0.18500
O810        O  0.18124620  0.51265214  0.91434413    -0.63700
H811        H  0.18847816  0.46452251  0.87275029     0.17000
C812        C  0.22711789  0.40135597  0.90062834     0.29200
C813        C  0.22976350  0.37637597  0.87550543    -0.24600
C814        C  0.23523816  0.37610824  0.82549829    -0.23900
C815        C  0.23773600  0.40160823  0.80075982     0.40700
C816        C  0.23468019  0.42654535  0.82591266    -0.26400
O817        O  0.22227875  0.40089794  0.94952618    -0.58300
H818        H  0.22785651  0.35716066  0.89541563     0.16300
O819        O  0.24268074  0.40248622  0.75189213    -0.59700
H820        H  0.23671095  0.44593381  0.80653090     0.14800
H821        H  0.16918382  0.50811140  0.94223731     0.46600
H822        H  0.20189083  0.40174020  0.95287096     0.42000
H823        H  0.26292710  0.40509432  0.74879322     0.45500
H824        H  0.27035801  0.43541221  0.96965859     0.36900
C825        C  0.20966197  0.63781348  0.87971634    -0.27300
C826        C  0.23317564  0.65453922  0.88308481     0.02300
C827        C  0.25428613  0.64766659  0.91597521     0.30400
C828        C  0.25195764  0.62396070  0.94458058    -0.19100
C829        C  0.22854702  0.60702543  0.94111968    -0.28500
C830        C  0.20726338  0.61410842  0.90850920     0.44400
C831        C  0.23550157  0.67947036  0.85279949     0.05600
O832        O  0.27688736  0.66444019  0.92123877    -0.57000
H833        H  0.26854199  0.61868314  0.96934356     0.18500
O834        O  0.18409660  0.59800026  0.90459939    -0.63700
H835        H  0.19323464  0.64314143  0.85465026     0.17000
C836        C  0.25382954  0.68030021  0.81340384     0.29200
C837        C  0.25726498  0.70487752  0.78730743    -0.24600
C838        C  0.24259916  0.72890670  0.80017503    -0.23900
C839        C  0.22373909  0.72766824  0.83923175     0.40700
C840        C  0.22021078  0.70300333  0.86489562    -0.26400
O841        O  0.26886302  0.65733630  0.80081635    -0.58300
H842        H  0.27181234  0.70523020  0.75753465     0.16300
O843        O  0.20847105  0.75033915  0.85255722    -0.59700
H844        H  0.20597905  0.70242193  0.89515196     0.14800
H845        H  0.17146615  0.60465644  0.93033092     0.46600
H846        H  0.25644828  0.64641560  0.77967517     0.42000
H847        H  0.21865622  0.75858724  0.88013520     0.45500
H848        H  0.29106840  0.65668611  0.89918312     0.36900
C849        C  0.36543257  0.30001225  0.17604064    -0.27300
C850        C  0.36433715  0.28950211  0.12873351     0.02300
C851        C  0.33837625  0.28355078  0.10811630     0.30400
C852        C  0.31421827  0.28778747  0.13490505    -0.19100
C853        C  0.31528309  0.29837568  0.18225865    -0.28500
C854        C  0.34127918  0.30469369  0.20258020     0.44400
C855        C  0.39040828  0.28434960  0.10181142     0.05600
O856        O  0.33632598  0.27368629  0.06172541    -0.57000
H857        H  0.29454461  0.28291606  0.11827280     0.18500
O858        O  0.34345165  0.31545451  0.24832185    -0.63700
H859        H  0.38517282  0.30424695  0.19293678     0.17000
C860        C  0.41124051  0.30464254  0.09925592     0.29200
C861        C  0.43610820  0.29887726  0.07543947    -0.24600
C862        C  0.44049555  0.27315463  0.05356776    -0.23900
C863        C  0.41971980  0.25296041  0.05559948     0.40700
C864        C  0.39492456  0.25858381  0.07968146    -0.26400
O865        O  0.40701685  0.33049787  0.11827197    -0.58300
H866        H  0.45195256  0.31462435  0.07361537     0.16300
O867        O  0.42359481  0.22759902  0.03455260    -0.59700
H868        H  0.37940082  0.24255048  0.08187188     0.14800
H869        H  0.34634653  0.29927509  0.26987287     0.46600
H870        H  0.41949851  0.33166890  0.14671028     0.42000
H871        H  0.43190617  0.21586175  0.06023198     0.45500
H872        H  0.33623765  0.29033592  0.04071098     0.36900
C873        C  0.58371983  0.23636266  0.09510458    -0.27300
C874        C  0.59141333  0.26045673  0.11983464     0.02300
C875        C  0.57355498  0.28347530  0.11961109     0.30400
C876        C  0.54863759  0.28236440  0.09404092    -0.19100
C877        C  0.54134703  0.25862679  0.06798181    -0.28500
C878        C  0.55880411  0.23530464  0.06927388     0.44400
C879        C  0.61847988  0.26165444  0.14457569     0.05600
O880        O  0.58120372  0.30772216  0.14149237    -0.57000
H881        H  0.53554237  0.30056658  0.09264760     0.18500
O882        O  0.55149371  0.21146851  0.04569645    -0.63700
H883        H  0.59719959  0.21843311  0.09549519     0.17000
C884        C  0.62028943  0.26728518  0.19443039     0.29200
C885        C  0.64614035  0.26923457  0.21672705    -0.24600
C886        C  0.67056050  0.26523056  0.19013277    -0.23900
C887        C  0.66867613  0.25929592  0.14018374     0.40700
C888        C  0.64275860  0.25740645  0.11790904    -0.26400
O889        O  0.59690367  0.27080711  0.22177416    -0.58300
H890        H  0.64703554  0.27367775  0.25512443     0.16300
O891        O  0.69195347  0.25571241  0.11257480    -0.59700
H892        H  0.64160696  0.25313572  0.07944792     0.14800
H893        H  0.56537134  0.20900039  0.01965054     0.46600
H894        H  0.59001226  0.25187367  0.22823900     0.42000
H895        H  0.69623376  0.27430574  0.09942459     0.45500
H896        H  0.56867976  0.30979938  0.16965994     0.36900
C897        C  0.57653009  0.23267575  0.90231931    -0.27300
C898        C  0.59815650  0.25054693  0.91504650     0.02300
C899        C  0.59362207  0.27075398  0.95069888     0.30400
C900        C  0.56755317  0.27348402  0.97186126    -0.19100
C901        C  0.54603062  0.25521955  0.96028841    -0.28500
C902        C  0.55073959  0.23463576  0.92511108     0.44400
C903        C  0.62427436  0.25026882  0.88720701     0.05600
O904        O  0.61407669  0.28905057  0.96288373    -0.57000
H905        H  0.56413654  0.29016043  0.99722179     0.18500
O906        O  0.53024868  0.21650172  0.91243038    -0.63700
H907        H  0.57966668  0.21724499  0.87447130     0.17000
C908        C  0.65010367  0.24678127  0.91000380     0.29200
C909        C  0.67452106  0.25029981  0.88345619    -0.24600
C910        C  0.67361494  0.25729793  0.83401890    -0.23900
C911        C  0.64760425  0.25953352  0.81093322     0.40700
C912        C  0.62331117  0.25584043  0.83747108    -0.26400
O913        O  0.65168264  0.24050770  0.95838003    -0.58300
H914        H  0.69418228  0.24816241  0.90191167     0.16300
O915        O  0.64558557  0.26520717  0.76236681    -0.59700
H916        H  0.60355939  0.25839237  0.81942525     0.14800
H917        H  0.53016487  0.20229694  0.93836944     0.46600
H918        H  0.65148088  0.22003040  0.95998457     0.42000
H919        H  0.64176182  0.28533187  0.76029521     0.45500
H920        H  0.62023582  0.28341723  0.99574796     0.36900
C921        C  0.36864295  0.29400119  0.82188526    -0.27300
C922        C  0.36916550  0.28176289  0.86790675     0.02300
C923        C  0.34425670  0.27390328  0.88991517     0.30400
C924        C  0.31912836  0.27861408  0.86615302    -0.19100
C925        C  0.31831708  0.29101355  0.82000341    -0.28500
C926        C  0.34351855  0.29839736  0.79764788     0.44400
C927        C  0.39570915  0.27770996  0.89338906     0.05600
O928        O  0.34424630  0.26253648  0.93546749    -0.57000
H929        H  0.30019138  0.27271144  0.88425420     0.18500
O930        O  0.34393317  0.31003827  0.75234289    -0.63700
H931        H  0.38780742  0.30002997  0.80463561     0.17000
C932        C  0.40731654  0.25115762  0.89853861     0.29200
C933        C  0.43171368  0.24754640  0.92514916    -0.24600
C934        C  0.44451423  0.27018232  0.94729888    -0.23900
C935        C  0.43320104  0.29681902  0.94135910     0.40700
C936        C  0.40894910  0.30046065  0.91439798    -0.26400
O937        O  0.39458112  0.22859386  0.87862716    -0.58300
H938        H  0.44027414  0.22697384  0.92962704     0.16300
O939        O  0.44536242  0.31926651  0.96274492    -0.59700
H940        H  0.40010617  0.32096630  0.91072950     0.14800
H941        H  0.34516841  0.29421519  0.72966538     0.46600
H942        H  0.40350878  0.22603132  0.84664583     0.42000
H943        H  0.45923333  0.32585554  0.93901587     0.45500
H944        H  0.34363643  0.24226924  0.93031458     0.36900
loop_ 
_geom_bond_atom_site_label_1 
_geom_bond_atom_site_label_2 
_geom_bond_distance 
_geom_bond_site_symmetry_2 
_ccdc_geom_bond_type 
C1            C2   1.410   1_554  A
C1            C6   1.399       .  A
C1          C862   1.477       .  S
C2            C3   1.402       .  A
C2          C934   1.478       .  S
C3            C4   1.406       .  A
C3            H8   1.084       .  S
C4            C5   1.419   1_556  A
C4          C901   1.490       .  S
C5            C6   1.401       .  A
C5          C877   1.481       .  S
C6            H7   1.085       .  S
C9           C10   1.413   1_554  A
C9           C14   1.397       .  A
C9          C766   1.477       .  S
C10          C11   1.403       .  A
C10         C829   1.479       .  S
C11          C12   1.401       .  A
C11          H16   1.084       .  S
C12          C13   1.413   1_556  A
C12         C805   1.484       .  S
C13          C14   1.399       .  A
C13         C781   1.475       .  S
C14          H15   1.085       .  S
C17          C18   1.415   1_556  A
C17          C22   1.402       .  A
C17         C742   1.486       .  S
C18          C19   1.398       .  A
C18         C661   1.474       .  S
C19          C20   1.398       .  A
C19          H24   1.085       .  S
C20          C21   1.413   1_554  A
C20         C685   1.483       .  S
C21          C22   1.402       .  A
C21         C709   1.476       .  S
C22          H23   1.084       .  S
C25          C26   1.416   1_556  A
C25          C30   1.402       .  A
C25         C637   1.489       .  S
C26          C27   1.400       .  A
C26         C574   1.475       .  S
C27          C28   1.397       .  A
C27          H32   1.085       .  S
C28          C29   1.413   1_554  A
C28         C598   1.480       .  S
C29          C30   1.404       .  A
C29         C613   1.480       .  S
C30          H31   1.084       .  S
C33          C34   1.413       .  A
C33          C38   1.401       .  A
C33         C541   1.478       .  S
C34          C35   1.400       .  A
C34         C517   1.478       .  S
C35          C36   1.398       .  A
C35          H40   1.085       .  S
C36          C37   1.410       .  A
C36         C502   1.474       .  S
C37          C38   1.401       .  A
C37         C469   1.476       .  S
C38          H39   1.084       .  S
C41          C42   1.415       .  A
C41          C46   1.405   1_655  A
C41         C454   1.480       .  S
C42          C43   1.399   1_655  A
C42         C421   1.481       .  S
C43          C44   1.399       .  A
C43          H48   1.085       .  S
C44          C45   1.414       .  A
C44         C397   1.477       .  S
C45          C46   1.402       .  A
C45         C382   1.485       .  S
C46          H47   1.084       .  S
C49          C50   1.415       .  A
C49          C54   1.400   1_565  A
C49         C325   1.479       .  S
C50          C51   1.404   1_565  A
C50         C358   1.482       .  S
C51          C52   1.401       .  A
C51          H56   1.084       .  S
C52          C53   1.410       .  A
C52         C277   1.479       .  S
C53          C54   1.399       .  A
C53         C301   1.473       .  S
C54          H55   1.085       .  S
C57          C58   1.417       .  A
C57          C62   1.405       .  A
C57         C262   1.494       .  S
C58          C59   1.401       .  A
C58         C229   1.477       .  S
C59          C60   1.402   1_655  A
C59          H64   1.085       .  S
C60          C61   1.416       .  A
C60         C214   1.486       .  S
C61          C62   1.402   1_455  A
C61         C181   1.483       .  S
C62          H63   1.084       .  S
O65          V73   1.896       .  S
O65          C75   1.264       .  A
O66          V73   1.897       .  S
O66          C76   1.265       .  A
O67          V73   1.893       .  S
O67          C77   1.263       .  A
O68          V73   1.897       .  S
O68          C78   1.264       .  A
O69          V74   1.895       .  S
O69          C78   1.264       .  A
O70          V74   1.894       .  S
O70          C77   1.263       .  A
O71          V74   1.897       .  S
O71          C76   1.264       .  A
O72          V74   1.899       .  S
O72          C75   1.265       .  A
V73          V74   2.086       .  T
C75         C853   1.483       .  S
C76         C205   1.480       .  S
C77         C790   1.473       .  S
C78         C478   1.480       .  S
O79          V87   1.896       .  S
O79          C89   1.264       .  A
O80          V87   1.895       .  S
O80          C90   1.264       .  A
O81          V87   1.898       .  S
O81          C91   1.265       .  A
O82          V87   1.897       .  S
O82          C92   1.264       .  A
O83          V88   1.897       .  S
O83          C92   1.265       .  A
O84          V88   1.895       .  S
O84          C91   1.264       .  A
O85          V88   1.895       .  S
O85          C90   1.263       .  A
O86          V88   1.897       .  S
O86          C89   1.264       .  A
V87          V88   2.086       .  T
C89         C310   1.482       .  S
C90         C565   1.474       .  S
C91         C238   1.480       .  S
C92         C886   1.480       .  S
O93         V101   1.904       .  S
O93         C103   1.266       .  A
O94         V101   1.907       .  S
O94         C104   1.267       .  A
O95         V101   1.892       .  S
O95         C105   1.264       .  A
O96         V101   1.897       .  S
O96         C106   1.263       .  A
O97         V102   1.906       .  S
O97         C106   1.266       .  A
O98         V102   1.909       .  S
O98         C105   1.267       .  A
O99         V102   1.893       .  S
O99         C104   1.263       .  A
O100        V102   1.900       .  S
O100        C103   1.263       .  A
V101        V102   2.083       .  T
C103        C253   1.475       .  S
C104        C910   1.485       .  S
C105        C286   1.487       .  S
C106        C646   1.472       .  S
O107        V115   1.897       .  S
O107        C117   1.265       .  A
O108        V115   1.896       .  S
O108        C118   1.264       .  A
O109        V115   1.903       .  S
O109        C119   1.265       .  A
O110        V115   1.902       .  S
O110        C120   1.266       .  A
O111        V116   1.897       .  S
O111        C120   1.264       .  A
O112        V116   1.891       .  S
O112        C119   1.264       .  A
O113        V116   1.895       .  S
O113        C118   1.264       .  A
O114        V116   1.896       .  S
O114        C117   1.264       .  A
V115        V116   2.085       .  T
C117        C445   1.482       .  S
C118        C670   1.480       .  S
C119        C334   1.482       .  S
C120        C589   1.481       .  S
O121        V129   1.897       .  S
O121        C131   1.264       .  A
O122        V129   1.898       .  S
O122        C132   1.265       .  A
O123        V129   1.898       .  S
O123        C133   1.264       .  A
O124        V129   1.897       .  S
O124        C134   1.265       .  A
O125        V130   1.897       .  S
O125        C134   1.263       .  A
O126        V130   1.897       .  S
O126        C133   1.264       .  A
O127        V130   1.899       .  S
O127        C132   1.264       .  A
O128        V130   1.901       .  S
O128        C131   1.265       .  A
V129        V130   2.086       .  T
C131        C430   1.481       .  S
C132        C733   1.482       .  S
C133        C349   1.479       .  S
C134        C622   1.474       .  S
O135        V143   1.900       .  S
O135        C145   1.265       .  A
O136        V143   1.898       .  S
O136        C146   1.265       .  A
O137        V143   1.893       .  S
O137        C147   1.263       .  A
O138        V143   1.894       .  S
O138        C148   1.264       .  A
O139        V144   1.898       .  S
O139        C148   1.265       .  A
O140        V144   1.901       .  S
O140        C147   1.266       .  A
O141        V144   1.898       .  S
O141        C146   1.264       .  A
O142        V144   1.898       .  S
O142        C145   1.265       .  A
V143        V144   2.086       .  T
C145        C373   1.481       .  S
C146        C694   1.479       .  S
C147        C550   1.480       .  S
C148        C757   1.479       .  S
O149        V157   1.905       .  S
O149        C159   1.266       .  A
O150        V157   1.905       .  S
O150        C160   1.267       .  A
O151        V157   1.894       .  S
O151        C161   1.263       .  A
O152        V157   1.893       .  S
O152        C162   1.263       .  A
O153        V158   1.897       .  S
O153        C162   1.264       .  A
O154        V158   1.897       .  S
O154        C161   1.265       .  A
O155        V158   1.890       .  S
O155        C160   1.262       .  A
O156        V158   1.891       .  S
O156        C159   1.263       .  A
V157        V158   2.084       .  T
C159        C526   1.482       .  S
C160        C838   1.482       .  S
C161        C406   1.479       .  S
C162        C718   1.475       .  S
O163        V171   1.904       .  S
O163        C173   1.266       .  A
O164        V171   1.905       .  S
O164        C174   1.266       .  A
O165        V171   1.896       .  S
O165        C175   1.264       .  A
O166        V171   1.897       .  S
O166        C176   1.264       .  A
O167        V172   1.904       .  S
O167        C176   1.266       .  A
O168        V172   1.905       .  S
O168        C175   1.266       .  A
O169        V172   1.892       .  S
O169        C174   1.263       .  A
O170        V172   1.897       .  S
O170        C173   1.264       .  A
V171        V172   2.084       .  T
C173        C814   1.486       .  S
C174        C493   1.481       .  S
C175        C925   1.487       .  S
C176        C190   1.483       .  S
C177        C178   1.404       .  A
C177        C182   1.400       .  A
C177        H187   1.083       .  S
C178        C179   1.408       .  A
C178        C183   1.481       .  S
C179        C180   1.398       .  A
C179        O184   1.372       .  S
C180        C181   1.403       .  A
C180        H185   1.084       .  S
C181        C182   1.409       .  A
C182        O186   1.372       .  S
C183        C188   1.407       .  A
C183        C192   1.402       .  A
O184        H200   0.992       .  S
O186        H197   0.992       .  S
C188        C189   1.400       .  A
C188        O193   1.372       .  S
C189        C190   1.405       .  A
C189        H194   1.083       .  S
C190        C191   1.413       .  A
C191        C192   1.401       .  A
C191        O195   1.372       .  S
C192        H196   1.084       .  S
O193        H198   0.992       .  S
O195        H199   0.992       .  S
C201        C202   1.402       .  A
C201        C206   1.400       .  A
C201        H211   1.084       .  S
C202        C203   1.407       .  A
C202        C207   1.478       .  S
C203        C204   1.397       .  A
C203        O208   1.372       .  S
C204        C205   1.405       .  A
C204        H209   1.083       .  S
C205        C206   1.412       .  A
C206        O210   1.372       .  S
C207        C212   1.407       .  A
C207        C216   1.403       .  A
O208        H224   0.992       .  S
O210        H221   0.992       .  S
C212        C213   1.396       .  A
C212        O217   1.372       .  S
C213        C214   1.404       .  A
C213        H218   1.083       .  S
C214        C215   1.411       .  A
C215        C216   1.399       .  A
C215        O219   1.372       .  S
C216        H220   1.084       .  S
O217        H222   0.992       .  S
O219        H223   0.992       .  S
C225        C226   1.402       .  A
C225        C230   1.400       .  A
C225        H235   1.084       .  S
C226        C227   1.406       .  A
C226        C231   1.473       .  S
C227        C228   1.397       .  A
C227        O232   1.371       .  S
C228        C229   1.402       .  A
C228        H233   1.084       .  S
C229        C230   1.407       .  A
C230        O234   1.372       .  S
C231        C236   1.404       .  A
C231        C240   1.400       .  A
O232        H248   0.992       .  S
O234        H245   0.992       .  S
C236        C237   1.399       .  A
C236        O241   1.372       .  S
C237        C238   1.407       .  A
C237        H242   1.083       .  S
C238        C239   1.413       .  A
C239        C240   1.398       .  A
C239        O243   1.372       .  S
C240        H244   1.084       .  S
O241        H246   0.992       .  S
O243        H247   0.992       .  S
C249        C250   1.408       .  A
C249        C254   1.404       .  A
C249        H259   1.082       .  S
C250        C251   1.415       .  A
C250        C255   1.496       .  S
C251        C252   1.400       .  A
C251        O256   1.372       .  S
C252        C253   1.400       .  A
C252        H257   1.084       .  S
C253        C254   1.407       .  A
C254        O258   1.373       .  S
C255        C260   1.413       .  A
C255        C264   1.406       .  A
O256        H272   0.992       .  S
O258        H269   0.991       .  S
C260        C261   1.403       .  A
C260        O265   1.373       .  S
C261        C262   1.406       .  A
C261        H266   1.082       .  S
C262        C263   1.409       .  A
C263        C264   1.398       .  A
C263        O267   1.372       .  S
C264        H268   1.083       .  S
O265        H270   0.992       .  S
O267        H271   0.992       .  S
C273        C274   1.406       .  A
C273        C278   1.401       .  A
C273        H283   1.083       .  S
C274        C275   1.410       .  A
C274        C279   1.486       .  S
C275        C276   1.399       .  A
C275        O280   1.371       .  S
C276        C277   1.402       .  A
C276        H281   1.083       .  S
C277        C278   1.405       .  A
C278        O282   1.372       .  S
C279        C284   1.407       .  A
C279        C288   1.405       .  A
O280        H296   0.992       .  S
O282        H293   0.991       .  S
C284        C285   1.399       .  A
C284        O289   1.373       .  S
C285        C286   1.407       .  A
C285        H290   1.083       .  S
C286        C287   1.412       .  A
C287        C288   1.402       .  A
C287        O291   1.371       .  S
C288        H292   1.084       .  S
O289        H294   0.992       .  S
O291        H295   0.992       .  S
C297        C298   1.402       .  A
C297        C302   1.397       .  A
C297        H307   1.084       .  S
C298        C299   1.408       .  A
C298        C303   1.475       .  S
C299        C300   1.401       .  A
C299        O304   1.372       .  S
C300        C301   1.401       .  A
C300        H305   1.083       .  S
C301        C302   1.404       .  A
C302        O306   1.372       .  S
C303        C308   1.406       .  A
C303        C312   1.401       .  A
O304        H320   0.992       .  S
O306        H317   0.991       .  S
C308        C309   1.399       .  A
C308        O313   1.372       .  S
C309        C310   1.408       .  A
C309        H314   1.083       .  S
C310        C311   1.413       .  A
C311        C312   1.397       .  A
C311        O315   1.372       .  S
C312        H316   1.084       .  S
O313        H318   0.992       .  S
O315        H319   0.992       .  S
C321        C322   1.403       .  A
C321        C326   1.401       .  A
C321        H331   1.084       .  S
C322        C323   1.405       .  A
C322        C327   1.473       .  S
C323        C324   1.396       .  A
C323        O328   1.371       .  S
C324        C325   1.402       .  A
C324        H329   1.084       .  S
C325        C326   1.409       .  A
C326        O330   1.372       .  S
C327        C332   1.403       .  A
C327        C336   1.402       .  A
O328        H344   0.992       .  S
O330        H341   0.992       .  S
C332        C333   1.396       .  A
C332        O337   1.372       .  S
C333        C334   1.407       .  A
C333        H338   1.083       .  S
C334        C335   1.413       .  A
C335        C336   1.401       .  A
C335        O339   1.371       .  S
C336        H340   1.084       .  S
O337        H342   0.992       .  S
O339        H343   0.992       .  S
C345        C346   1.403       .  A
C345        C350   1.398       .  A
C345        H355   1.084       .  S
C346        C347   1.408       .  A
C346        C351   1.481       .  S
C347        C348   1.401       .  A
C347        O352   1.373       .  S
C348        C349   1.406       .  A
C348        H353   1.084       .  S
C349        C350   1.411       .  A
C350        O354   1.372       .  S
C351        C356   1.409       .  A
C351        C360   1.404       .  A
O352        H368   0.992       .  S
O354        H365   0.992       .  S
C356        C357   1.399       .  A
C356        O361   1.371       .  S
C357        C358   1.403       .  A
C357        H362   1.083       .  S
C358        C359   1.407       .  A
C359        C360   1.399       .  A
C359        O363   1.372       .  S
C360        H364   1.084       .  S
O361        H366   0.992       .  S
O363        H367   0.992       .  S
C369        C370   1.405       .  A
C369        C374   1.401       .  A
C369        H379   1.083       .  S
C370        C371   1.408       .  A
C370        C375   1.484       .  S
C371        C372   1.399       .  A
C371        O376   1.372       .  S
C372        C373   1.405       .  A
C372        H377   1.083       .  S
C373        C374   1.411       .  A
C374        O378   1.372       .  S
C375        C380   1.409       .  A
C375        C384   1.405       .  A
O376        H392   0.992       .  S
O378        H389   0.992       .  S
C380        C381   1.399       .  A
C380        O385   1.372       .  S
C381        C382   1.403       .  A
C381        H386   1.083       .  S
C382        C383   1.408       .  A
C383        C384   1.400       .  A
C383        O387   1.372       .  S
C384        H388   1.083       .  S
O385        H390   0.992       .  S
O387        H391   0.992       .  S
C393        C394   1.401       .  A
C393        C398   1.397       .  A
C393        H403   1.084       .  S
C394        C395   1.405       .  A
C394        C399   1.470       .  S
C395        C396   1.397       .  A
C395        O400   1.372       .  S
C396        C397   1.403       .  A
C396        H401   1.083       .  S
C397        C398   1.407       .  A
C398        O402   1.372       .  S
C399        C404   1.405       .  A
C399        C408   1.399       .  A
O400        H416   0.992       .  S
O402        H413   0.992       .  S
C404        C405   1.397       .  A
C404        O409   1.372       .  S
C405        C406   1.406       .  A
C405        H410   1.083       .  S
C406        C407   1.414       .  A
C407        C408   1.398       .  A
C407        O411   1.372       .  S
C408        H412   1.084       .  S
O409        H414   0.992       .  S
O411        H415   0.992       .  S
C417        C418   1.406       .  A
C417        C422   1.401       .  A
C417        H427   1.083       .  S
C418        C419   1.410       .  A
C418        C423   1.483       .  S
C419        C420   1.396       .  A
C419        O424   1.372       .  S
C420        C421   1.401       .  A
C420        H425   1.084       .  S
C421        C422   1.408       .  A
C422        O426   1.371       .  S
C423        C428   1.409       .  A
C423        C432   1.404       .  A
O424        H440   0.992       .  S
O426        H437   0.992       .  S
C428        C429   1.400       .  A
C428        O433   1.372       .  S
C429        C430   1.406       .  A
C429        H434   1.083       .  S
C430        C431   1.411       .  A
C431        C432   1.399       .  A
C431        O435   1.371       .  S
C432        H436   1.084       .  S
O433        H438   0.992       .  S
O435        H439   0.992       .  S
C441        C442   1.399       .  A
C441        C446   1.399       .  A
C441        H451   1.084       .  S
C442        C443   1.404       .  A
C442        C447   1.471       .  S
C443        C444   1.397       .  A
C443        O448   1.372       .  S
C444        C445   1.407       .  A
C444        H449   1.083       .  S
C445        C446   1.414       .  A
C446        O450   1.371       .  S
C447        C452   1.405       .  A
C447        C456   1.401       .  A
O448        H464   0.992       .  S
O450        H461   0.992       .  S
C452        C453   1.397       .  A
C452        O457   1.372       .  S
C453        C454   1.404       .  A
C453        H458   1.083       .  S
C454        C455   1.408       .  A
C455        C456   1.398       .  A
C455        O459   1.372       .  S
C456        H460   1.084       .  S
O457        H462   0.992       .  S
O459        H463   0.992       .  S
C465        C466   1.405       .  A
C465        C470   1.399       .  A
C465        H475   1.083       .  S
C466        C467   1.409       .  A
C466        C471   1.481       .  S
C467        C468   1.397       .  A
C467        O472   1.372       .  S
C468        C469   1.400       .  A
C468        H473   1.084       .  S
C469        C470   1.406       .  A
C470        O474   1.371       .  S
C471        C476   1.407       .  A
C471        C480   1.403       .  A
O472        H488   0.992       .  S
O474        H485   0.992       .  S
C476        C477   1.399       .  A
C476        O481   1.372       .  S
C477        C478   1.406       .  A
C477        H482   1.083       .  S
C478        C479   1.411       .  A
C479        C480   1.398       .  A
C479        O483   1.372       .  S
C480        H484   1.084       .  S
O481        H486   0.992       .  S
O483        H487   0.992       .  S
C489        C490   1.404       .  A
C489        C494   1.400       .  A
C489        H499   1.084       .  S
C490        C491   1.406       .  A
C490        C495   1.480       .  S
C491        C492   1.399       .  A
C491        O496   1.373       .  S
C492        C493   1.406       .  A
C492        H497   1.083       .  S
C493        C494   1.411       .  A
C494        O498   1.371       .  S
C495        C500   1.411       .  A
C495        C504   1.404       .  A
O496        H512   0.992       .  S
O498        H509   0.992       .  S
C500        C501   1.398       .  A
C500        O505   1.371       .  S
C501        C502   1.400       .  A
C501        H506   1.084       .  S
C502        C503   1.406       .  A
C503        C504   1.397       .  A
C503        O507   1.372       .  S
C504        H508   1.084       .  S
O505        H510   0.992       .  S
O507        H511   0.992       .  S
C513        C514   1.404       .  A
C513        C518   1.396       .  A
C513        H523   1.083       .  S
C514        C515   1.409       .  A
C514        C519   1.481       .  S
C515        C516   1.401       .  A
C515        O520   1.371       .  S
C516        C517   1.403   1_565  A
C516        H521   1.084       .  S
C517        C518   1.406   1_545  A
C518        O522   1.372   1_565  S
C519        C524   1.407       .  A
C519        C528   1.404       .  A
O520        H536   0.992       .  S
O522        H533   0.992       .  S
C524        C525   1.397       .  A
C524        O529   1.373       .  S
C525        C526   1.406       .  A
C525        H530   1.083       .  S
C526        C527   1.411       .  A
C527        C528   1.402       .  A
C527        O531   1.371       .  S
C528        H532   1.084       .  S
O529        H534   0.992       .  S
O531        H535   0.992       .  S
C537        C538   1.403       .  A
C537        C542   1.401       .  A
C537        H547   1.084       .  S
C538        C539   1.405       .  A
C538        C543   1.473       .  S
C539        C540   1.395       .  A
C539        O544   1.372       .  S
C540        C541   1.402   1_565  A
C540        H545   1.083       .  S
C541        C542   1.408   1_545  A
C542        O546   1.371   1_565  S
C543        C548   1.406       .  A
C543        C552   1.400       .  A
O544        H560   0.992       .  S
O546        H557   0.992       .  S
C548        C549   1.397       .  A
C548        O553   1.372       .  S
C549        C550   1.405       .  A
C549        H554   1.083       .  S
C550        C551   1.414       .  A
C551        C552   1.400       .  A
C551        O555   1.372       .  S
C552        H556   1.084       .  S
O553        H558   0.992       .  S
O555        H559   0.992       .  S
C561        C562   1.401       .  A
C561        C566   1.397       .  A
C561        H571   1.084       .  S
C562        C563   1.406       .  A
C562        C567   1.473       .  S
C563        C564   1.399       .  A
C563        O568   1.373       .  S
C564        C565   1.405       .  A
C564        H569   1.084       .  S
C565        C566   1.410       .  A
C566        O570   1.372       .  S
C567        C572   1.407       .  A
C567        C576   1.403       .  A
O568        H584   0.992       .  S
O570        H581   0.992       .  S
C572        C573   1.398       .  A
C572        O577   1.373       .  S
C573        C574   1.403       .  A
C573        H578   1.084       .  S
C574        C575   1.406       .  A
C575        C576   1.395       .  A
C575        O579   1.372       .  S
C576        H580   1.084       .  S
O577        H582   0.992       .  S
O579        H583   0.992       .  S
C585        C586   1.401       .  A
C585        C590   1.398       .  A
C585        H595   1.084       .  S
C586        C587   1.406       .  A
C586        C591   1.477       .  S
C587        C588   1.401       .  A
C587        O592   1.372       .  S
C588        C589   1.407       .  A
C588        H593   1.084       .  S
C589        C590   1.411       .  A
C590        O594   1.371       .  S
C591        C596   1.407       .  A
C591        C600   1.403       .  A
O592        H608   0.992       .  S
O594        H605   0.992       .  S
C596        C597   1.398       .  A
C596        O601   1.372       .  S
C597        C598   1.402       .  A
C597        H602   1.084       .  S
C598        C599   1.407       .  A
C599        C600   1.400       .  A
C599        O603   1.371       .  S
C600        H604   1.084       .  S
O601        H606   0.992       .  S
O603        H607   0.992       .  S
C609        C610   1.402       .  A
C609        C614   1.395       .  A
C609        H619   1.083       .  S
C610        C611   1.409       .  A
C610        C615   1.479       .  S
C611        C612   1.401       .  A
C611        O616   1.371       .  S
C612        C613   1.405       .  A
C612        H617   1.083       .  S
C613        C614   1.406       .  A
C614        O618   1.372       .  S
C615        C620   1.408       .  A
C615        C624   1.404       .  A
O616        H632   0.992       .  S
O618        H629   0.992       .  S
C620        C621   1.397       .  A
C620        O625   1.373       .  S
C621        C622   1.402       .  A
C621        H626   1.084       .  S
C622        C623   1.410       .  A
C623        C624   1.400       .  A
C623        O627   1.372       .  S
C624        H628   1.084       .  S
O625        H630   0.992       .  S
O627        H631   0.992       .  S
C633        C634   1.404       .  A
C633        C638   1.398       .  A
C633        H643   1.083       .  S
C634        C635   1.411       .  A
C634        C639   1.488       .  S
C635        C636   1.401       .  A
C635        O640   1.371       .  S
C636        C637   1.405       .  A
C636        H641   1.083       .  S
C637        C638   1.409       .  A
C638        O642   1.372       .  S
C639        C644   1.413       .  A
C639        C648   1.405       .  A
O640        H656   0.992       .  S
O642        H653   0.992       .  S
C644        C645   1.401       .  A
C644        O649   1.372       .  S
C645        C646   1.401       .  A
C645        H650   1.084       .  S
C646        C647   1.406       .  A
C647        C648   1.400       .  A
C647        O651   1.371       .  S
C648        H652   1.083       .  S
O649        H654   0.992       .  S
O651        H655   0.990       .  S
C657        C658   1.407       .  A
C657        C662   1.398       .  A
C657        H667   1.083       .  S
C658        C659   1.412       .  A
C658        C663   1.485       .  S
C659        C660   1.395       .  A
C659        O664   1.372       .  S
C660        C661   1.399       .  A
C660        H665   1.084       .  S
C661        C662   1.405       .  A
C662        O666   1.372       .  S
C663        C668   1.410       .  A
C663        C672   1.404       .  A
O664        H680   0.992       .  S
O666        H677   0.992       .  S
C668        C669   1.399       .  A
C668        O673   1.372       .  S
C669        C670   1.405       .  A
C669        H674   1.083       .  S
C670        C671   1.411       .  A
C671        C672   1.397       .  A
C671        O675   1.372       .  S
C672        H676   1.083       .  S
O673        H678   0.992       .  S
O675        H679   0.992       .  S
C681        C682   1.402       .  A
C681        C686   1.397       .  A
C681        H691   1.084       .  S
C682        C683   1.407       .  A
C682        C687   1.475       .  S
C683        C684   1.398       .  A
C683        O688   1.372       .  S
C684        C685   1.405       .  A
C684        H689   1.083       .  S
C685        C686   1.408       .  A
C686        O690   1.372       .  S
C687        C692   1.406       .  A
C687        C696   1.401       .  A
O688        H704   0.992       .  S
O690        H701   0.992       .  S
C692        C693   1.398       .  A
C692        O697   1.372       .  S
C693        C694   1.405       .  A
C693        H698   1.083       .  S
C694        C695   1.413       .  A
C695        C696   1.400       .  A
C695        O699   1.372       .  S
C696        H700   1.084       .  S
O697        H702   0.992       .  S
O699        H703   0.992       .  S
C705        C706   1.402       .  A
C705        C710   1.398       .  A
C705        H715   1.084       .  S
C706        C707   1.407       .  A
C706        C711   1.472       .  S
C707        C708   1.395       .  A
C707        O712   1.372       .  S
C708        C709   1.401       .  A
C708        H713   1.084       .  S
C709        C710   1.409       .  A
C710        O714   1.372       .  S
C711        C716   1.406       .  A
C711        C720   1.400       .  A
O712        H728   0.992       .  S
O714        H725   0.992       .  S
C716        C717   1.398       .  A
C716        O721   1.372       .  S
C717        C718   1.405       .  A
C717        H722   1.083       .  S
C718        C719   1.411       .  A
C719        C720   1.396       .  A
C719        O723   1.372       .  S
C720        H724   1.084       .  S
O721        H726   0.992       .  S
O723        H727   0.992       .  S
C729        C730   1.401       .  A
C729        C734   1.401       .  A
C729        H739   1.084       .  S
C730        C731   1.404       .  A
C730        C735   1.475       .  S
C731        C732   1.398       .  A
C731        O736   1.372       .  S
C732        C733   1.406       .  A
C732        H737   1.083       .  S
C733        C734   1.413       .  A
C734        O738   1.371       .  S
C735        C740   1.404       .  A
C735        C744   1.402       .  A
O736        H752   0.992       .  S
O738        H749   0.992       .  S
C740        C741   1.397       .  A
C740        O745   1.372       .  S
C741        C742   1.405       .  A
C741        H746   1.083       .  S
C742        C743   1.410       .  A
C743        C744   1.400       .  A
C743        O747   1.371       .  S
C744        H748   1.084       .  S
O745        H750   0.992       .  S
O747        H751   0.992       .  S
C753        C754   1.401       .  A
C753        C758   1.397       .  A
C753        H763   1.084       .  S
C754        C755   1.407       .  A
C754        C759   1.477       .  S
C755        C756   1.399       .  A
C755        O760   1.372       .  S
C756        C757   1.406       .  A
C756        H761   1.083       .  S
C757        C758   1.412       .  A
C758        O762   1.372       .  S
C759        C764   1.408       .  A
C759        C768   1.403       .  A
O760        H776   0.992       .  S
O762        H773   0.992       .  S
C764        C765   1.399       .  A
C764        O769   1.372       .  S
C765        C766   1.402       .  A
C765        H770   1.084       .  S
C766        C767   1.406       .  A
C767        C768   1.398       .  A
C767        O771   1.371       .  S
C768        H772   1.084       .  S
O769        H774   0.992       .  S
O771        H775   0.992       .  S
C777        C778   1.402       .  A
C777        C782   1.396       .  A
C777        H787   1.084       .  S
C778        C779   1.407       .  A
C778        C783   1.473       .  S
C779        C780   1.397       .  A
C779        O784   1.373       .  S
C780        C781   1.402       .  A
C780        H785   1.083       .  S
C781        C782   1.406       .  A
C782        O786   1.372       .  S
C783        C788   1.407       .  A
C783        C792   1.401       .  A
O784        H800   0.992       .  S
O786        H797   0.992       .  S
C788        C789   1.395       .  A
C788        O793   1.372       .  S
C789        C790   1.404       .  A
C789        H794   1.084       .  S
C790        C791   1.410       .  A
C791        C792   1.397       .  A
C791        O795   1.372       .  S
C792        H796   1.084       .  S
O793        H798   0.992       .  S
O795        H799   0.992       .  S
C801        C802   1.403       .  A
C801        C806   1.402       .  A
C801        H811   1.083       .  S
C802        C803   1.406       .  A
C802        C807   1.478       .  S
C803        C804   1.399       .  A
C803        O808   1.372       .  S
C804        C805   1.404       .  A
C804        H809   1.084       .  S
C805        C806   1.408       .  A
C806        O810   1.371       .  S
C807        C812   1.406       .  A
C807        C816   1.400       .  A
O808        H824   0.992       .  S
O810        H821   0.992       .  S
C812        C813   1.400       .  A
C812        O817   1.371       .  S
C813        C814   1.407       .  A
C813        H818   1.083       .  S
C814        C815   1.414       .  A
C815        C816   1.401       .  A
C815        O819   1.372       .  S
C816        H820   1.084       .  S
O817        H822   0.992       .  S
O819        H823   0.992       .  S
C825        C826   1.401       .  A
C825        C830   1.399       .  A
C825        H835   1.084       .  S
C826        C827   1.405       .  A
C826        C831   1.471       .  S
C827        C828   1.396       .  A
C827        O832   1.372       .  S
C828        C829   1.403       .  A
C828        H833   1.083       .  S
C829        C830   1.408       .  A
C830        O834   1.372       .  S
C831        C836   1.405       .  A
C831        C840   1.397       .  A
O832        H848   0.992       .  S
O834        H845   0.992       .  S
C836        C837   1.400       .  A
C836        O841   1.372       .  S
C837        C838   1.407       .  A
C837        H842   1.083       .  S
C838        C839   1.415       .  A
C839        C840   1.398       .  A
C839        O843   1.372       .  S
C840        H844   1.084       .  S
O841        H846   0.992       .  S
O843        H847   0.992       .  S
C849        C850   1.404       .  A
C849        C854   1.398       .  A
C849        H859   1.083       .  S
C850        C851   1.409       .  A
C850        C855   1.486       .  S
C851        C852   1.399       .  A
C851        O856   1.372       .  S
C852        C853   1.407       .  A
C852        H857   1.083       .  S
C853        C854   1.411       .  A
C854        O858   1.372       .  S
C855        C860   1.411       .  A
C855        C864   1.406       .  A
O856        H872   0.992       .  S
O858        H869   0.992       .  S
C860        C861   1.400       .  A
C860        O865   1.373       .  S
C861        C862   1.400       .  A
C861        H866   1.084       .  S
C862        C863   1.405       .  A
C863        C864   1.399       .  A
C863        O867   1.371       .  S
C864        H868   1.083       .  S
O865        H870   0.992       .  S
O867        H871   0.992       .  S
C873        C874   1.403       .  A
C873        C878   1.401       .  A
C873        H883   1.084       .  S
C874        C875   1.407       .  A
C874        C879   1.478       .  S
C875        C876   1.398       .  A
C875        O880   1.372       .  S
C876        C877   1.403       .  A
C876        H881   1.084       .  S
C877        C878   1.408       .  A
C878        O882   1.373       .  S
C879        C884   1.407       .  A
C879        C888   1.402       .  A
O880        H896   0.992       .  S
O882        H893   0.992       .  S
C884        C885   1.397       .  A
C884        O889   1.372       .  S
C885        C886   1.405       .  A
C885        H890   1.083       .  S
C886        C887   1.413       .  A
C887        C888   1.400       .  A
C887        O891   1.372       .  S
C888        H892   1.084       .  S
O889        H894   0.992       .  S
O891        H895   0.992       .  S
C897        C898   1.404       .  A
C897        C902   1.401       .  A
C897        H907   1.084       .  S
C898        C899   1.406       .  A
C898        C903   1.480       .  S
C899        C900   1.397       .  A
C899        O904   1.372       .  S
C900        C901   1.405       .  A
C900        H905   1.082       .  S
C901        C902   1.411       .  A
C902        O906   1.372       .  S
C903        C908   1.408       .  A
C903        C912   1.400       .  A
O904        H920   0.992       .  S
O906        H917   0.992       .  S
C908        C909   1.402       .  A
C908        O913   1.371       .  S
C909        C910   1.407       .  A
C909        H914   1.083       .  S
C910        C911   1.414       .  A
C911        C912   1.398       .  A
C911        O915   1.372       .  S
C912        H916   1.084       .  S
O913        H918   0.992       .  S
O915        H919   0.992       .  S
C921        C922   1.401       .  A
C921        C926   1.402       .  A
C921        H931   1.084       .  S
C922        C923   1.404       .  A
C922        C927   1.476       .  S
C923        C924   1.399       .  A
C923        O928   1.372       .  S
C924        C925   1.408       .  A
C924        H929   1.083       .  S
C925        C926   1.414       .  A
C926        O930   1.371       .  S
C927        C932   1.407       .  A
C927        C936   1.402       .  A
O928        H944   0.992       .  S
O930        H941   0.992       .  S
C932        C933   1.400       .  A
C932        O937   1.371       .  S
C933        C934   1.401       .  A
C933        H938   1.084       .  S
C934        C935   1.408       .  A
C935        C936   1.399       .  A
C935        O939   1.371       .  S
C936        H940   1.084       .  S
O937        H942   0.992       .  S
O939        H943   0.992       .  S
