geometry optimzed in LAMMPS
_audit_creation_date              2020-12-01 
_audit_creation_method            'lammps2cif' 
_symmetry_space_group_name_H-M    'P1' 
_symmetry_Int_Tables_number       1 
_symmetry_cell_setting            triclinic 
loop_ 
_symmetry_equiv_pos_as_xyz 
  x,y,z 
_cell_length_a                    35.61230812 
_cell_length_b                    35.73401881504268 
_cell_length_c                    35.519066546132514 
_cell_angle_alpha                 89.77991784733595 
_cell_angle_beta                  89.94262661525354 
_cell_angle_gamma                 89.8633203103395 
loop_ 
_atom_site_label 
_atom_site_type_symbol 
_atom_site_fract_x 
_atom_site_fract_y 
_atom_site_fract_z 
_atom_site_charge 
N1          N  0.98729546  0.26896121  0.54921220    -0.35300
N2          N  0.04970322  0.26722998  0.49540589    -0.55900
N3          N  0.99552283  0.27206558  0.43472600    -0.35300
N4          N  0.93310608  0.26824549  0.48882341    -0.55900
C5          C  0.01598741  0.25925529  0.57223897     0.28300
C6          C  0.95513677  0.26388897  0.56887488     0.28300
C7          C  0.02785290  0.26789741  0.41509034     0.28200
C8          C  0.96676636  0.26323417  0.41151921     0.28200
C9          C  0.06895710  0.27137160  0.52790972     0.36900
C10         C  0.07324444  0.27749962  0.46729099     0.36900
C11         C  0.90921427  0.27574774  0.51754430     0.36900
C12         C  0.91363084  0.27335020  0.45655395     0.36900
C13         C  0.00186808  0.24772581  0.60678235    -0.20600
C14         C  0.96351277  0.25080250  0.60471980    -0.20600
C15         C  0.01955038  0.25646788  0.37877588    -0.20600
C16         C  0.98108962  0.25347041  0.37653136    -0.20600
C17         C  0.10501918  0.28386911  0.52038364    -0.21700
C18         C  0.10762866  0.28806829  0.48203374    -0.21700
C19         C  0.87418456  0.28521097  0.50345666    -0.21700
C20         C  0.87685438  0.28330599  0.46486039    -0.21700
C21         C  0.05457973  0.26363547  0.56428186    -0.17000
C22         C  0.91854158  0.27268801  0.55622434    -0.17000
C23         C  0.92799516  0.26721559  0.41982720    -0.17000
C24         C  0.06453074  0.27565653  0.42845314    -0.17000
H25         H  0.01760807  0.23876098  0.63127729     0.15900
H26         H  0.94400747  0.24432730  0.62720042     0.15900
H27         H  0.03916520  0.25095712  0.35616243     0.15900
H28         H  0.96550194  0.24570320  0.35164393     0.15900
H29         H  0.12699710  0.28999248  0.54043734     0.14200
H30         H  0.13208465  0.29788814  0.46688879     0.14200
H31         H  0.84921997  0.29250260  0.51920550     0.14200
H32         H  0.85427972  0.28876935  0.44520109     0.14200
H33         H  0.98967884  0.28279582  0.52365986     0.27400
H34         H  0.99304884  0.28482461  0.46121087     0.27400
O35         O  0.24718820  0.26945424  0.18004324    -0.87100
C36         C  0.33814715  0.24763232  0.24619089     0.89000
Mg37       Mg  0.20415780  0.30930085  0.19498770     1.58100
O38         O  0.26997150  0.17627328  0.24445600    -0.86800
O39         O  0.25363232  0.21086060  0.16340939    -0.74100
C40         C  0.15291888  0.26211501  0.36706217     0.94000
O41         O  0.28923928  0.32457489  0.23681910    -0.73900
O42         O  0.15425036  0.29074456  0.34564903    -0.81500
Mg43       Mg  0.30402112  0.28911289  0.18487719     1.58000
C44         C  0.23483648  0.13050367  0.34633371     0.93900
O45         O  0.32562768  0.25931121  0.13189745    -0.79700
H46         H  0.23948059  0.13903774  0.21596150    -0.05100
C47         C  0.26073116  0.24937098  0.33333808     0.88900
O48         O  0.16512506  0.26212230  0.21460720    -0.74200
O49         O  0.31636183  0.24206320  0.21983224    -0.87000
O50         O  0.26508058  0.13552240  0.32777596    -0.79800
C51         C  0.36338669  0.14053288  0.25285531     0.94000
C52         C  0.34309611  0.22905349  0.12450874     0.93900
Mg53       Mg  0.19497258  0.20287773  0.30750658     1.58000
O54         O  0.17243891  0.23285228  0.36067664    -0.79700
O55         O  0.21043465  0.16670539  0.25642766    -0.74000
O56         O  0.35568980  0.15982198  0.22363849    -0.79800
O57         O  0.29152324  0.33862181  0.14752668    -0.81500
O58         O  0.14405758  0.33635941  0.26911327    -0.79800
C59         C  0.24032654  0.15947447  0.23831022     0.88300
O60         O  0.18239655  0.25031118  0.27235791    -0.87000
O61         O  0.25223799  0.22259408  0.31320606    -0.87100
O62         O  0.24353353  0.28049024  0.33098670    -0.74100
Mg63       Mg  0.30444284  0.18807606  0.19638308     1.58000
O64         O  0.34316211  0.14170259  0.28251228    -0.81500
H65         H  0.21423664  0.24574963  0.14136947    -0.05200
O66         O  0.22978826  0.31540478  0.24980965    -0.86800
H67         H  0.26161025  0.35085104  0.27919404    -0.05100
H68         H  0.13905326  0.22422797  0.24830662    -0.05200
C69         C  0.25991821  0.33132496  0.25608751     0.88300
C70         C  0.23754669  0.24252477  0.16059584     0.88900
C71         C  0.16102700  0.24489098  0.24560943     0.88900
H72         H  0.28368959  0.24643278  0.35303187    -0.05200
O73         O  0.33459858  0.23053277  0.27731932    -0.74200
Mg74       Mg  0.19360194  0.30420533  0.29689907     1.58000
H75         H  0.36001878  0.26834528  0.24305135    -0.05200
C76         C  0.26512759  0.36253236  0.14871727     0.93900
O77         O  0.15842534  0.35100405  0.20985387    -0.81500
C78         C  0.13810363  0.35505951  0.23898552     0.94000
O79         O  0.34109920  0.20043460  0.14574395    -0.81500
Mg80       Mg  0.29647147  0.18334222  0.29866593     1.58200
O81         O  0.23653375  0.35841699  0.16972601    -0.79800
O82         O  0.20713811  0.15282885  0.34430464    -0.81500
O83         O  0.69709181  0.28942179  0.78887762    -0.87100
C84         C  0.81016146  0.28423065  0.80805605     0.89000
Mg85       Mg  0.66300926  0.23968710  0.78488803     1.58100
O86         O  0.78461957  0.30947700  0.71527310    -0.86800
O87         O  0.71181815  0.33965917  0.75665808    -0.74100
C88         C  0.75464528  0.12971781  0.66727393     0.94000
O89         O  0.74099732  0.22810198  0.83876593    -0.73900
O90         O  0.73470072  0.12616315  0.69680513    -0.81500
Mg91       Mg  0.73247108  0.29198117  0.83790439     1.58000
C92         C  0.83596278  0.25620006  0.62415105     0.93900
O93         O  0.72757698  0.35475385  0.84723728    -0.79700
H94         H  0.75586081  0.34243671  0.67995258    -0.05100
C95         C  0.81020483  0.19928425  0.73341243     0.88900
O96         O  0.66438083  0.24172405  0.72058461    -0.74200
O97         O  0.78026423  0.30012846  0.80034975    -0.87000
O98         O  0.84481247  0.27622133  0.65257329    -0.79800
C99         C  0.86943138  0.35579509  0.74403552     0.94000
C100        C  0.74431380  0.38497549  0.83847536     0.93900
Mg101      Mg  0.76185223  0.22355680  0.66682484     1.58000
O102        O  0.76878875  0.16086948  0.65715144    -0.79700
O103        O  0.75226235  0.28709889  0.66802910    -0.74000
O104        O  0.83977882  0.36332305  0.76300357    -0.79800
O105        O  0.68035061  0.28525775  0.87629876    -0.81500
O106        O  0.65997296  0.14943617  0.74354059    -0.79800
C107        C  0.76444139  0.31431776  0.68735921     0.88300
O108        O  0.71663286  0.21368680  0.70510888    -0.87000
O109        O  0.80023636  0.22613367  0.71373060    -0.87100
O110        O  0.78667556  0.17670378  0.74780454    -0.74100
Mg111      Mg  0.77592299  0.34726155  0.76143197     1.58000
O112        O  0.87152288  0.32711865  0.72293556    -0.81500
H113        H  0.65837061  0.32105547  0.76321895    -0.05200
O114        O  0.71316491  0.20619501  0.78872124    -0.86800
H115        H  0.73812733  0.17275571  0.82644059    -0.05100
H116        H  0.67981947  0.23158718  0.66659654    -0.05200
C117        C  0.73068335  0.20098921  0.81827016     0.88300
C118        C  0.68773047  0.31684516  0.76973198     0.88900
C119        C  0.68660822  0.22850529  0.69610729     0.88900
H120        H  0.83972070  0.19560822  0.73953492    -0.05200
O121        O  0.83234917  0.27271567  0.78249521    -0.74200
Mg122      Mg  0.72297254  0.16733012  0.74408760     1.58000
H123        H  0.81729465  0.27938343  0.83725104    -0.05200
C124        C  0.65502161  0.26011749  0.87538273     0.93900
O125        O  0.62717661  0.18788640  0.78044712    -0.81500
C126        C  0.63014063  0.15775947  0.76177830     0.94000
O127        O  0.76542958  0.38781120  0.80968465    -0.81500
Mg128      Mg  0.83458152  0.27544527  0.71750687     1.58200
O129        O  0.65225602  0.23730815  0.84821922    -0.79800
O130        O  0.80876946  0.23330325  0.62517048    -0.81500
N131        N  0.49511985  0.04842492  0.24256169    -0.35300
N132        N  0.44222408  0.98785395  0.25372437    -0.55900
N133        N  0.50186324  0.93455337  0.23712277    -0.35300
N134        N  0.55591365  0.99509380  0.23102672    -0.55900
C135        C  0.46681007  0.06666788  0.26022478     0.28300
C136        C  0.52578390  0.07056657  0.24436591     0.28300
C137        C  0.47387751  0.91136592  0.24808593     0.28200
C138        C  0.53452532  0.91526296  0.24009133     0.28200
C139        C  0.41821062  0.01724666  0.25500579     0.36900
C140        C  0.42115575  0.95702769  0.24746706     0.36900
C141        C  0.57276813  0.02651354  0.21827492     0.36900
C142        C  0.57744959  0.96611575  0.21957382     0.36900
C143        C  0.47992383  0.10051749  0.27394022    -0.20600
C144        C  0.51707312  0.10311198  0.26364781    -0.20600
C145        C  0.48875204  0.87682754  0.25785841    -0.20600
C146        C  0.52704164  0.87940342  0.25330697    -0.20600
C147        C  0.38164405  0.00493207  0.25019481    -0.21700
C148        C  0.38352691  0.96681276  0.24529490    -0.21700
C149        C  0.60506323  0.01747625  0.19844987    -0.21700
C150        C  0.60812888  0.97912305  0.19943933    -0.21700
C151        C  0.42887120  0.05482633  0.26155102    -0.17000
C152        C  0.56066436  0.06313922  0.22697163    -0.17000
C153        C  0.57040969  0.92826245  0.22864448    -0.17000
C154        C  0.43515134  0.91992429  0.24680642    -0.17000
H155        H  0.46424240  0.12148683  0.28928389     0.15900
H156        H  0.53555004  0.12636019  0.26958151     0.15900
H157        H  0.47366044  0.85227330  0.26728597     0.15900
H158        H  0.54694764  0.85706885  0.25856955     0.15900
H159        H  0.35624164  0.02161171  0.25007117     0.14200
H160        H  0.35983065  0.94835108  0.24126306     0.14200
H161        H  0.62456401  0.03648651  0.18500673     0.14200
H162        H  0.63023789  0.96269956  0.18660960     0.14200
H163        H  0.49260764  0.02456072  0.22596809     0.27400
H164        H  0.49821634  0.96039262  0.22407969     0.27400
O165        O  0.79932630  0.70947268  0.22954912    -0.87100
C166        C  0.68887788  0.68959195  0.24693841     0.89000
Mg167      Mg  0.83703736  0.72128463  0.27475677     1.58100
O168        O  0.71228011  0.77700142  0.20688742    -0.86800
O169        O  0.78181734  0.73141150  0.17495881    -0.74100
C170        C  0.75479150  0.85147091  0.37696007     0.94000
O171        O  0.76099098  0.67012943  0.30092654    -0.73900
O172        O  0.77588521  0.82307211  0.38189448    -0.81500
Mg173      Mg  0.76552941  0.66045738  0.23702414     1.58000
C174        C  0.66103786  0.87329844  0.24917628     0.93900
O175        O  0.76840613  0.64215993  0.17499357    -0.79700
H176        H  0.73690153  0.80768877  0.16672313    -0.05100
C177        C  0.69476143  0.77750405  0.32127699     0.88900
O178        O  0.83480145  0.78406578  0.26254474    -0.74200
O179        O  0.71690080  0.69491945  0.22711019    -0.87000
O180        O  0.65373348  0.84188616  0.23404948    -0.79800
C181        C  0.62564792  0.74371581  0.17107878     0.94000
C182        C  0.74679626  0.64446402  0.14652751     0.93900
Mg183      Mg  0.73905781  0.83951488  0.28338479     1.58000
O184        O  0.73776272  0.85799416  0.34594085    -0.79700
O185        O  0.74335086  0.82837599  0.21948963    -0.74000
O186        O  0.65377222  0.72247095  0.16482114    -0.79800
O187        O  0.81755929  0.62466615  0.24709525    -0.81500
O188        O  0.84863718  0.77225598  0.35948765    -0.79800
C189        C  0.73067388  0.80443449  0.19635100     0.88300
O190        O  0.78656472  0.80433479  0.29482023    -0.87000
O191        O  0.70279965  0.79166671  0.29058712    -0.87100
O192        O  0.72000024  0.76709663  0.34421222    -0.74100
Mg193      Mg  0.71754711  0.72588631  0.17491071     1.58000
O194        O  0.62545920  0.76763925  0.19737871    -0.81500
H195        H  0.83632981  0.72753672  0.19122673    -0.05200
O196        O  0.79002893  0.72272064  0.31266429    -0.86800
H197        H  0.76747404  0.69129249  0.35347061    -0.05100
H198        H  0.82060402  0.83888927  0.26660482    -0.05200
C199        C  0.77301797  0.69463891  0.32371604     0.88300
C200        C  0.80723214  0.72266387  0.19839143     0.88900
C201        C  0.81443349  0.81044191  0.27498354     0.88900
H202        H  0.66558563  0.77289004  0.32830412    -0.05200
O203        O  0.66797005  0.71644896  0.25744905    -0.74200
Mg204      Mg  0.78427298  0.77138564  0.34644055     1.58000
H205        H  0.68259055  0.66151303  0.25642546    -0.05200
C206        C  0.84325620  0.62977605  0.27135574     0.93900
O207        O  0.87760743  0.73265682  0.32088041    -0.81500
C208        C  0.87745362  0.75310329  0.34987686     0.94000
O209        O  0.72340263  0.67120995  0.14240732    -0.81500
Mg210      Mg  0.66521607  0.77963722  0.24495040     1.58200
O211        O  0.84723935  0.66042746  0.28853300    -0.79800
O212        O  0.68895259  0.87765709  0.27108331    -0.81500
N213        N  0.94600391  0.73608417  0.50487902    -0.35300
N214        N  0.00462281  0.73072804  0.44906783    -0.55900
N215        N  0.05939445  0.71671384  0.50853597    -0.35300
N216        N  0.99921668  0.71514478  0.56348494    -0.55900
C217        C  0.92637922  0.73828331  0.47234173     0.28300
C218        C  0.92242329  0.72246971  0.53155247     0.28300
C219        C  0.07958885  0.70534014  0.47827474     0.28200
C220        C  0.07849308  0.70652044  0.53980313     0.28200
C221        C  0.97904527  0.75005638  0.42858964     0.36900
C222        C  0.03694632  0.73112464  0.42916365     0.36900
C223        C  0.96782829  0.71876795  0.58461578     0.36900
C224        C  0.02853562  0.71696859  0.58757110     0.36900
C225        C  0.88995472  0.72602731  0.47833619    -0.20600
C226        C  0.88760119  0.71560089  0.51555244    -0.20600
C227        C  0.11209436  0.68767252  0.49065695    -0.20600
C228        C  0.11169373  0.68900944  0.52950598    -0.20600
C229        C  0.99552624  0.76353567  0.39586457    -0.21700
C230        C  0.03200013  0.75081207  0.39584689    -0.21700
C231        C  0.97725204  0.72204150  0.62234782    -0.21700
C232        C  0.01568861  0.72117988  0.62418100    -0.21700
C233        C  0.94031597  0.75178266  0.43757587    -0.17000
C234        C  0.93075663  0.71869499  0.57042129    -0.17000
C235        C  0.06665662  0.71291839  0.57731152    -0.17000
C236        C  0.07052096  0.71295055  0.44005127    -0.17000
H237        H  0.86753853  0.72417670  0.45787603     0.15900
H238        H  0.86287582  0.70447309  0.52928559     0.15900
H239        H  0.13421529  0.67571751  0.47357937     0.15900
H240        H  0.13304399  0.67776272  0.54806339     0.15900
H241        H  0.98255702  0.78009514  0.37386291     0.14200
H242        H  0.05271892  0.75598185  0.37413094     0.14200
H243        H  0.95852137  0.72533954  0.64611926     0.14200
H244        H  0.03220168  0.72310173  0.64966153     0.14200
H245        H  0.97256006  0.74733404  0.50932056     0.27400
H246        H  0.03574874  0.73378576  0.50824468     0.27400
O247        O  0.29174278  0.78067392  0.80273396    -0.87100
C248        C  0.32498048  0.77412811  0.69295908     0.89000
Mg249      Mg  0.28475603  0.73126240  0.83765308     1.58100
O250        O  0.22976242  0.79633161  0.70457102    -0.86800
O251        O  0.25960724  0.82903634  0.78224790    -0.74100
C252        C  0.17086896  0.62113746  0.74184019     0.94000
O253        O  0.34321088  0.71992861  0.76251184    -0.73900
O254        O  0.19766068  0.61898796  0.76541912    -0.81500
Mg255      Mg  0.34325588  0.78406221  0.77108048     1.58000
C256        C  0.15004274  0.73902545  0.64055090     0.93900
O257        O  0.35058006  0.84858293  0.77817175    -0.79700
H258        H  0.19005551  0.83137542  0.72290948    -0.05100
C259        C  0.24831252  0.68350760  0.68718502     0.88900
O260        O  0.22057238  0.73388037  0.82899473    -0.74200
O261        O  0.31227336  0.79137901  0.72023344    -0.87000
O262        O  0.17942552  0.75882630  0.63594509    -0.79800
C263        C  0.26941604  0.83966523  0.62377943     0.94000
C264        C  0.34248644  0.87839145  0.75978486     0.93900
Mg265      Mg  0.17751047  0.71263859  0.72424687     1.58000
O266        O  0.16601887  0.64975862  0.72092359    -0.79700
O267        O  0.17719449  0.77645255  0.72907224    -0.74000
O268        O  0.28061946  0.85046530  0.65609852    -0.79800
O269        O  0.37787916  0.77549859  0.82360740    -0.81500
O270        O  0.23787807  0.64427155  0.84026768    -0.79800
C271        C  0.19863592  0.80269359  0.71842848     0.88300
O272        O  0.20922705  0.70589983  0.77562179    -0.87000
O273        O  0.23010492  0.71220492  0.69368791    -0.87100
O274        O  0.25802683  0.66136005  0.71344123    -0.74100
Mg275      Mg  0.27205080  0.83623987  0.71893035     1.58000
O276        O  0.25243506  0.80878918  0.61884396    -0.81500
H277        H  0.25981427  0.81183646  0.83678139    -0.09200
O278        O  0.29238191  0.69653751  0.78849426    -0.86800
H279        H  0.33106636  0.66443137  0.76352383    -0.05100
H280        H  0.16812773  0.72668141  0.80778723    -0.05200
C281        C  0.32247435  0.69232394  0.77154456     0.88300
C282        C  0.27036553  0.80735455  0.80860195     0.88900
C283        C  0.19791592  0.72200991  0.80416853     0.88900
H284        H  0.25693341  0.67758417  0.65862302    -0.05200
O285        O  0.30368828  0.75845749  0.66918593    -0.74200
Mg286      Mg  0.24666093  0.65810752  0.77708569     1.58000
H287        H  0.35504703  0.77078780  0.69028495    -0.05200
C288        C  0.37637444  0.75168413  0.85019118     0.93900
O289        O  0.27662248  0.67929916  0.87433130    -0.81500
C290        C  0.25568897  0.65070952  0.87069241     0.94000
O291        O  0.31704893  0.87890022  0.73458419    -0.81500
Mg292      Mg  0.24055829  0.75952951  0.65737743     1.58200
O293        O  0.34788047  0.73052556  0.85508677    -0.79800
O294        O  0.14512731  0.71864678  0.66960983    -0.81500
N295        N  0.49291793  0.94931641  0.77863802    -0.35300
N296        N  0.55348253  0.00248234  0.76140615    -0.55900
N297        N  0.50028498  0.06335782  0.76842045    -0.35300
N298        N  0.43911309  0.00931406  0.78000118    -0.55900
C299        C  0.52114908  0.92581181  0.76915217     0.28300
C300        C  0.46057280  0.92945990  0.77701331     0.28300
C301        C  0.52977039  0.08080986  0.75187814     0.28200
C302        C  0.46948834  0.08442444  0.76154381     0.28200
C303        C  0.57376302  0.97160162  0.77021388     0.36900
C304        C  0.57734784  0.03186254  0.76360201     0.36900
C305        C  0.41634520  0.98119764  0.79136464     0.36900
C306        C  0.42094538  0.04155256  0.78771450     0.36900
C307        C  0.50669542  0.89058928  0.76174579    -0.20600
C308        C  0.46852657  0.89290275  0.76660362    -0.20600
C309        C  0.51746188  0.11308614  0.73391304    -0.20600
C310        C  0.47943561  0.11551288  0.74021414    -0.20600
C311        C  0.61053647  0.98148268  0.77812468    -0.21700
C312        C  0.61284206  0.01961626  0.77377867    -0.21700
C313        C  0.38358340  0.99557117  0.80656857    -0.21700
C314        C  0.38660470  0.03390077  0.80454260    -0.21700
C315        C  0.55982371  0.93448652  0.76964634    -0.17000
C316        C  0.42427867  0.94280226  0.78630795    -0.17000
C317        C  0.43302252  0.07725331  0.77546953    -0.17000
C318        C  0.56769951  0.06930894  0.75493950    -0.17000
H319        H  0.52207366  0.86564822  0.75388267     0.15900
H320        H  0.44894420  0.87006142  0.76312442     0.15900
H321        H  0.53411270  0.13294138  0.71804308     0.15900
H322        H  0.46119383  0.13765654  0.73014865     0.15900
H323        H  0.63334955  0.96320950  0.78644767     0.14200
H324        H  0.63772454  0.03638903  0.77805326     0.14200
H325        H  0.35995498  0.98007665  0.81771075     0.14200
H326        H  0.36550261  0.05381450  0.81350890     0.14200
H327        H  0.49628642  0.97599689  0.78957594     0.27400
H328        H  0.50169599  0.04074333  0.78694063     0.27400
N329        N  0.25073888  0.54894911  0.99702664    -0.35300
N330        N  0.25204491  0.49143163  0.93911862    -0.55900
N331        N  0.27437688  0.43625062  0.99646621    -0.35300
N332        N  0.26795527  0.49291435  0.05431011    -0.55900
C333        C  0.23730886  0.56840620  0.96709642     0.28300
C334        C  0.24037028  0.56758070  0.02859699     0.28300
C335        C  0.26650311  0.41343527  0.96722905     0.28200
C336        C  0.27609975  0.41453644  0.02774786     0.28200
C337        C  0.25182611  0.52224416  0.91668260     0.36900
C338        C  0.26064145  0.46192317  0.91677118     0.36900
C339        C  0.26688282  0.52349092  0.07650514     0.36900
C340        C  0.28216223  0.46487118  0.07560014     0.36900
C341        C  0.21837311  0.59988773  0.97976157    -0.20600
C342        C  0.22040377  0.59944606  0.01844779    -0.20600
C343        C  0.26369326  0.37680698  0.98001132    -0.20600
C344        C  0.26971989  0.37749622  0.01813799    -0.20600
C345        C  0.25998345  0.51203680  0.87990270    -0.21700
C346        C  0.26537046  0.47393673  0.87996264    -0.21700
C347        C  0.28024334  0.51458268  0.11215704    -0.21700
C348        C  0.29061874  0.47776052  0.11130222    -0.21700
C349        C  0.24306518  0.55921303  0.92864753    -0.17000
C350        C  0.25073209  0.55820460  0.06607141    -0.17000
C351        C  0.28354658  0.42694602  0.06474176    -0.17000
C352        C  0.26393828  0.42418361  0.92899152    -0.17000
H353        H  0.20441567  0.62103558  0.96293224     0.15900
H354        H  0.20880224  0.62054305  0.03690687     0.15900
H355        H  0.25789165  0.35204694  0.96356783     0.15900
H356        H  0.26918611  0.35337659  0.03665406     0.15900
H357        H  0.26216545  0.53005678  0.85546153     0.14200
H358        H  0.27260924  0.45713218  0.85572388     0.14200
H359        H  0.28165846  0.53212747  0.13680988     0.14200
H360        H  0.30175328  0.46199770  0.13486255     0.14200
H361        H  0.26945643  0.52666851  0.99558074     0.27400
H362        H  0.28182788  0.46428200  0.99454258     0.27400
N363        N  0.73708124  0.44973462  0.99959175    -0.35300
N364        N  0.72559934  0.50640753  0.05784501    -0.55900
N365        N  0.72788063  0.56387374  0.00074199    -0.35300
N366        N  0.73533105  0.50742785  0.94184779    -0.55900
C367        C  0.72598725  0.42811463  0.02889749     0.28300
C368        C  0.73285316  0.42924753  0.96782098     0.28300
C369        C  0.71575362  0.58394263  0.03060118     0.28200
C370        C  0.72030724  0.58413757  0.96939471     0.28200
C371        C  0.72898006  0.47576866  0.08006071     0.36900
C372        C  0.72696605  0.53660091  0.08076098     0.36900
C373        C  0.75103141  0.47867296  0.92291668     0.36900
C374        C  0.74581112  0.53889512  0.92360382     0.36900
C375        C  0.71479638  0.39341927  0.01567106    -0.20600
C376        C  0.71896414  0.39416089  0.97717451    -0.20600
C377        C  0.70030419  0.61743299  0.01808511    -0.20600
C378        C  0.70286421  0.61740203  0.97945966    -0.20600
C379        C  0.73199543  0.48650299  0.11741556    -0.21700
C380        C  0.73064343  0.52498130  0.11787651    -0.21700
C381        C  0.77250039  0.49194660  0.89320886    -0.21700
C382        C  0.76912297  0.53021282  0.89359917    -0.21700
C383        C  0.72692284  0.43826575  0.06739249    -0.17000
C384        C  0.74361953  0.44078140  0.93112201    -0.17000
C385        C  0.73220437  0.57487515  0.93257105    -0.17000
C386        C  0.72125788  0.57412143  0.06877297    -0.17000
H387        H  0.70451232  0.36997132  0.03203936     0.15900
H388        H  0.71246099  0.37132554  0.95837987     0.15900
H389        H  0.68876353  0.63987551  0.03490141     0.15900
H390        H  0.69369961  0.63983054  0.96106427     0.15900
H391        H  0.73426204  0.46849166  0.14188198     0.14200
H392        H  0.73113823  0.54220796  0.14284745     0.14200
H393        H  0.78904820  0.47586366  0.87345199     0.14200
H394        H  0.78247521  0.54939677  0.87414367     0.14200
H395        H  0.75050512  0.47550365  0.00156072     0.27400
H396        H  0.74481953  0.54012044  0.00194688     0.27400
O397        O  0.71614298  0.80928889  0.78519908    -0.87100
C398        C  0.68028197  0.70262226  0.76651752     0.89000
Mg399      Mg  0.73298096  0.84569602  0.73984153     1.58100
O400        O  0.77201775  0.71205194  0.80257398    -0.86800
O401        O  0.73720633  0.78694639  0.83825695    -0.74100
C402        C  0.84481202  0.74405938  0.63065160     0.94000
O403        O  0.66840589  0.77865189  0.71530257    -0.73900
O404        O  0.81978164  0.76942944  0.62845443    -0.81500
Mg405      Mg  0.66250378  0.78215890  0.77953932     1.58000
C406        C  0.85806148  0.64615935  0.75689598     0.93900
O407        O  0.64665132  0.78490304  0.84291449    -0.79700
H408        H  0.80782596  0.73049129  0.84161231    -0.05100
C409        C  0.76409688  0.69557968  0.68913446     0.88900
O410        O  0.79501911  0.83091546  0.74809168    -0.74200
O411        O  0.69039192  0.72885593  0.78669543    -0.87000
O412        O  0.82642721  0.64405972  0.77346250    -0.79800
C413        C  0.72837236  0.63075210  0.84040712     0.94000
C414        C  0.64697307  0.76140969  0.87005833     0.93900
Mg415      Mg  0.83481754  0.72803887  0.72370890     1.58000
O416        O  0.84949437  0.72412690  0.66024841    -0.79700
O417        O  0.82779529  0.73347868  0.78810181    -0.74000
O418        O  0.71328696  0.66202981  0.84833656    -0.79800
O419        O  0.63392241  0.83865275  0.77172016    -0.81500
O420        O  0.78252998  0.84718697  0.65310986    -0.79800
C421        C  0.80261464  0.72521674  0.81212757     0.88300
O422        O  0.80624589  0.78046126  0.71515044    -0.87000
O423        O  0.78168209  0.70016999  0.71868486    -0.87100
O424        O  0.75581542  0.72282906  0.66771445    -0.74100
Mg425      Mg  0.72364634  0.72408141  0.83737680     1.58000
O426        O  0.74957399  0.62634059  0.81209723    -0.81500
H427        H  0.73990069  0.84195746  0.82399348    -0.05200
O428        O  0.72435710  0.79965457  0.70137142    -0.86800
H429        H  0.68772264  0.78415631  0.66182096    -0.05100
H430        H  0.84666305  0.80751355  0.74284300    -0.05200
C431        C  0.69334924  0.78783239  0.69148071     0.88300
C432        C  0.73115664  0.81413866  0.81604063     0.88900
C433        C  0.81734246  0.80644825  0.73506607     0.88900
H434        H  0.75435040  0.66786254  0.68203220    -0.05200
O435        O  0.70333716  0.67809691  0.75474404    -0.74200
Mg436      Mg  0.77081877  0.78507672  0.66575685     1.58000
H437        H  0.65125308  0.70110220  0.75778342    -0.05200
C438        C  0.64202761  0.86672968  0.75104706     0.93900
O439        O  0.75052389  0.88429080  0.69209756    -0.81500
C440        C  0.76987817  0.87924476  0.66244404     0.94000
O441        O  0.67131268  0.73534358  0.87219675    -0.81500
Mg442      Mg  0.76589323  0.66494196  0.76469507     1.58200
O443        O  0.67326260  0.86938792  0.73380074    -0.79800
O444        O  0.86564413  0.67249811  0.73379860    -0.81500
N445        N  0.76032573  0.95057697  0.50349140    -0.35300
N446        N  0.76242714  0.00585829  0.56397282    -0.55900
N447        N  0.75555348  0.06457335  0.50722470    -0.35300
N448        N  0.75803873  0.00987110  0.44749144    -0.55900
C449        C  0.77309325  0.93045690  0.53329888     0.28300
C450        C  0.77058765  0.93214340  0.47186343     0.28300
C451        C  0.76409540  0.08403496  0.53864798     0.28200
C452        C  0.76412808  0.08654044  0.47733268     0.28200
C453        C  0.75256732  0.97420900  0.58230136     0.36900
C454        C  0.74830522  0.03452665  0.58423569     0.36900
C455        C  0.75185090  0.98015873  0.42487541     0.36900
C456        C  0.75018038  0.04089174  0.42694506     0.36900
C457        C  0.79215452  0.89913764  0.52049370    -0.20600
C458        C  0.79093284  0.90040320  0.48175562    -0.20600
C459        C  0.77853193  0.11871208  0.52856755    -0.20600
C460        C  0.77837631  0.12034519  0.48984725    -0.20600
C461        C  0.73107415  0.98267794  0.61367600    -0.21700
C462        C  0.72832210  0.02102008  0.61488015    -0.21700
C463        C  0.73990287  0.99245248  0.38973815    -0.21700
C464        C  0.73924923  0.03089030  0.39094743    -0.21700
C465        C  0.76491554  0.93829600  0.57148180    -0.17000
C466        C  0.76018968  0.94254008  0.43464063    -0.17000
C467        C  0.75631834  0.07793576  0.43939842    -0.17000
C468        C  0.75543721  0.07246182  0.57579201    -0.17000
H469        H  0.80549768  0.87753994  0.53725549     0.15900
H470        H  0.80368511  0.88014764  0.46310857     0.15900
H471        H  0.78768369  0.14085041  0.54710014     0.15900
H472        H  0.78719610  0.14398205  0.47289876     0.15900
H473        H  0.71822065  0.96333891  0.63331053     0.14200
H474        H  0.71286227  0.03695198  0.63560765     0.14200
H475        H  0.73298239  0.97568806  0.36543033     0.14200
H476        H  0.73205944  0.04924498  0.36774807     0.14200
H477        H  0.74187431  0.97321601  0.50478229     0.27400
H478        H  0.74034303  0.03973963  0.50644557     0.27400
O479        O  0.71083912  0.25327245  0.17932796    -0.87100
C480        C  0.73047383  0.33868198  0.25334397     0.89000
Mg481      Mg  0.67507807  0.20648497  0.19282902     1.58100
O482        O  0.80423046  0.27340821  0.24578244    -0.86800
O483        O  0.76956288  0.26206034  0.16359219    -0.74100
C484        C  0.72742977  0.14940770  0.36347112     0.94000
O485        O  0.65423392  0.28751242  0.24117537    -0.73900
O486        O  0.69854144  0.15275470  0.34277170    -0.81500
Mg487      Mg  0.68840150  0.30874173  0.19066758     1.58000
C488        C  0.85666070  0.23622792  0.34546933     0.93900
O489        O  0.71649738  0.33916475  0.14032124    -0.79700
H490        H  0.84455692  0.24882003  0.21541941    -0.05100
C491        C  0.73412901  0.25770522  0.33516169     0.88900
O492        O  0.72581091  0.17056706  0.21131325    -0.74200
O493        O  0.73631542  0.31950579  0.22511029    -0.87000
O494        O  0.84879333  0.26640810  0.32794993    -0.79800
C495        C  0.83786578  0.36503475  0.25916157     0.94000
C496        C  0.74772292  0.35473606  0.13216695     0.93900
Mg497      Mg  0.78591689  0.19531047  0.30563013     1.58000
O498        O  0.75767160  0.16721034  0.35668242    -0.79700
O499        O  0.82102958  0.21544258  0.25528212    -0.74000
O500        O  0.81827487  0.36046575  0.22959191    -0.79800
O501        O  0.63760470  0.29681875  0.15438755    -0.81500
O502        O  0.66074716  0.14043375  0.26361472    -0.79800
C503        C  0.82436417  0.24637632  0.23804246     0.88300
O504        O  0.73870620  0.18458795  0.26980337    -0.87000
O505        O  0.76195819  0.25032645  0.31569012    -0.87100
O506        O  0.70301613  0.24105503  0.33055469    -0.74100
Mg507      Mg  0.79085356  0.31048421  0.19991514     1.58000
O508        O  0.83633031  0.34285084  0.28708207    -0.81500
H509        H  0.73549319  0.22464494  0.13785122    -0.05200
O510        O  0.66876453  0.22854804  0.24890049    -0.86800
H511        H  0.62991641  0.25402402  0.28041729    -0.05100
H512        H  0.76693818  0.14515947  0.24171246    -0.05200
C513        C  0.64983222  0.25620971  0.25752317     0.88300
C514        C  0.73811053  0.24609168  0.15906920     0.88900
C515        C  0.74464085  0.16574073  0.24132544     0.88900
H516        H  0.73596770  0.27983688  0.35574570    -0.05200
O517        O  0.74830798  0.33313234  0.28375663    -0.74200
Mg518      Mg  0.68393224  0.19156072  0.29433070     1.58000
H519        H  0.70879474  0.35989920  0.25248549    -0.05200
C520        C  0.61658886  0.26834768  0.15041045     0.93900
O521        O  0.63756417  0.15664907  0.20749630    -0.81500
C522        C  0.64067198  0.13364059  0.23486410     0.94000
O523        O  0.77735886  0.34914970  0.15127585    -0.81500
Mg524      Mg  0.79788139  0.29599462  0.30176434     1.58200
O525        O  0.62379419  0.23690154  0.16615916    -0.79800
O526        O  0.83618074  0.20723901  0.34308572    -0.81500
N527        N  0.98891016  0.54870775  0.25986242    -0.35300
N528        N  0.04804488  0.49233054  0.26086122    -0.55900
N529        N  0.99187434  0.43465226  0.27564486    -0.35300
N530        N  0.93299453  0.49091001  0.27116311    -0.55900
C531        C  0.01871944  0.57056691  0.25149708     0.28300
C532        C  0.95736013  0.56839818  0.25185795     0.28300
C533        C  0.02180198  0.41303941  0.26675872     0.28200
C534        C  0.96097660  0.41282502  0.27337293     0.28200
C535        C  0.06963075  0.52345797  0.26295303     0.36900
C536        C  0.07103803  0.46261929  0.26688470     0.36900
C537        C  0.91086359  0.52136614  0.27423648     0.36900
C538        C  0.91293384  0.46195489  0.28471359     0.36900
C539        C  0.00599589  0.60510927  0.23881515    -0.20600
C540        C  0.96729976  0.60357562  0.23856939    -0.20600
C541        C  0.00985495  0.37685691  0.25948112    -0.20600
C542        C  0.97144004  0.37676597  0.26344707    -0.20600
C543        C  0.10667544  0.51329066  0.26947052    -0.21700
C544        C  0.10758008  0.47484267  0.27176803    -0.21700
C545        C  0.87655183  0.51171469  0.29001382    -0.21700
C546        C  0.87810604  0.47408862  0.29717976    -0.21700
C547        C  0.05689927  0.56082458  0.25728304    -0.17000
C548        C  0.92008918  0.55685138  0.25969519    -0.17000
C549        C  0.92378553  0.42427601  0.28123638    -0.17000
C550        C  0.05974677  0.42454926  0.26690428    -0.17000
H551        H  0.02276888  0.62907918  0.23085325     0.15900
H552        H  0.94865126  0.62631536  0.23089751     0.15900
H553        H  0.02701922  0.35297532  0.25199708     0.15900
H554        H  0.95333820  0.35280943  0.25952808     0.15900
H555        H  0.13067697  0.53163709  0.27192970     0.14200
H556        H  0.13231396  0.45784525  0.27661422     0.14200
H557        H  0.85260009  0.52955542  0.29539747     0.14200
H558        H  0.85565339  0.45737205  0.30897600     0.14200
H559        H  0.99024581  0.52346419  0.27427725     0.27400
H560        H  0.99287852  0.46158501  0.28655474     0.27400
O561        O  0.22526064  0.66776686  0.24879684    -0.87100
C562        C  0.24078227  0.74807572  0.16532088     0.89000
Mg563      Mg  0.18873236  0.67796004  0.29623113     1.58100
O564        O  0.31723285  0.74288431  0.22821600    -0.86800
O565        O  0.28590309  0.66039899  0.24013467    -0.74100
C566        C  0.23318407  0.84778253  0.35444420     0.94000
O567        O  0.16365123  0.72675281  0.21594322    -0.73900
O568        O  0.20518937  0.82635864  0.35053024    -0.81500
Mg569      Mg  0.20207955  0.68058612  0.19329740     1.58000
C570        C  0.36440997  0.84168869  0.26919437     0.93900
O571        O  0.23363709  0.63426605  0.16056345    -0.79700
H572        H  0.36068311  0.71441942  0.24964586    -0.05100
C573        C  0.24206310  0.82406348  0.24571149     0.88900
O574        O  0.23880657  0.69777404  0.33221828    -0.74200
O575        O  0.24769566  0.71986148  0.18433095    -0.87000
O576        O  0.35800139  0.82642999  0.23737664    -0.79800
C577        C  0.34700089  0.75924565  0.13414309     0.94000
C578        C  0.26548639  0.63028415  0.14455973     0.93900
Mg579      Mg  0.29557650  0.79515417  0.30805419     1.58000
O580        O  0.26413942  0.84216759  0.33746467    -0.79700
O581        O  0.33446570  0.74897766  0.28651613    -0.74000
O582        O  0.32741540  0.73018981  0.14041909    -0.79800
O583        O  0.15372155  0.63971548  0.20420754    -0.81500
O584        O  0.17221419  0.74627126  0.36318245    -0.79800
C585        C  0.33873396  0.73487134  0.25418860     0.88300
O586        O  0.25007459  0.75621377  0.31736447    -0.87000
O587        O  0.27193236  0.80777489  0.25294013    -0.87100
O588        O  0.21141275  0.81578344  0.26208926    -0.74100
Mg589      Mg  0.30407643  0.69829407  0.19114925     1.58000
O590        O  0.34778697  0.78677078  0.15680689    -0.81500
H591        H  0.25554269  0.63068272  0.27813745    -0.05200
O592        O  0.18030349  0.73340174  0.27447563    -0.86800
H593        H  0.13748176  0.76207766  0.25209678    -0.05100
H594        H  0.27955311  0.72894468  0.35677621    -0.05200
C595        C  0.15927139  0.74135225  0.24807379     0.88300
C596        C  0.25520567  0.65172466  0.25618676     0.88900
C597        C  0.25704826  0.72801823  0.33639955     0.88900
H598        H  0.24173748  0.84499940  0.22365893    -0.05200
O599        O  0.25889962  0.77834501  0.16973676    -0.74200
Mg600      Mg  0.19384571  0.77824543  0.31156621     1.58000
H601        H  0.21841670  0.74715505  0.14479052    -0.05200
C602        C  0.13277929  0.63420993  0.23288330     0.93900
O603        O  0.14997024  0.69027244  0.34712114    -0.81500
C604        C  0.15249898  0.71746365  0.37025397     0.94000
O605        O  0.29303455  0.65141895  0.15156747    -0.81500
Mg606      Mg  0.30854544  0.79828896  0.20617247     1.58200
O607        O  0.13902099  0.64995624  0.26458645    -0.79800
O608        O  0.34374161  0.83570159  0.29784060    -0.81500
N609        N  0.26711301  0.05025660  0.48806631    -0.35300
N610        N  0.26155225  0.99076416  0.43294406    -0.55900
N611        N  0.26522382  0.93561965  0.49258201    -0.35300
N612        N  0.26775098  0.99514459  0.54753901    -0.55900
C613        C  0.25493186  0.06863033  0.45705905     0.28300
C614        C  0.25775195  0.07127378  0.51828605     0.28300
C615        C  0.25251395  0.91512582  0.46334899     0.28200
C616        C  0.25607538  0.91711204  0.52456656     0.28200
C617        C  0.26849003  0.01994850  0.40985612     0.36900
C618        C  0.26695666  0.95972442  0.41218751     0.36900
C619        C  0.27758400  0.02608648  0.56698327     0.36900
C620        C  0.27715068  0.96545490  0.56931489     0.36900
C621        C  0.23734492  0.10160037  0.46751608    -0.20600
C622        C  0.23836131  0.10287783  0.50625325    -0.20600
C623        C  0.23481941  0.88327338  0.47672028    -0.20600
C624        C  0.23636180  0.88489581  0.51544477    -0.20600
C625        C  0.27800944  0.00750977  0.37417381    -0.21700
C626        C  0.27697109  0.96914522  0.37563725    -0.21700
C627        C  0.29371783  0.01600009  0.60104894    -0.21700
C628        C  0.29349372  0.97759403  0.60250756    -0.21700
C629        C  0.26206826  0.05738915  0.41971753    -0.17000
C630        C  0.26853527  0.06304299  0.55584069    -0.17000
C631        C  0.26744124  0.92799867  0.56118357    -0.17000
C632        C  0.25940441  0.92336276  0.42513202    -0.17000
H633        H  0.22481141  0.12243638  0.44923557     0.15900
H634        H  0.22610194  0.12470290  0.52335312     0.15900
H635        H  0.22197003  0.86128246  0.46034463     0.15900
H636        H  0.22432498  0.86450680  0.53449443     0.15900
H637        H  0.28396225  0.02430193  0.34945975     0.14200
H638        H  0.28203006  0.95041124  0.35228838     0.14200
H639        H  0.30412567  0.03434734  0.62282544     0.14200
H640        H  0.30369072  0.96062842  0.62565517     0.14200
H641        H  0.28478753  0.02696734  0.48819094     0.27400
H642        H  0.28317408  0.95852966  0.49064009     0.27400
O643        O  0.28224097  0.31128284  0.76569233    -0.87100
C644        C  0.27483200  0.20116344  0.79337726     0.89000
Mg645      Mg  0.23002206  0.34121980  0.75536705     1.58100
O646        O  0.30814551  0.21721662  0.70169540    -0.86800
O647        O  0.33440397  0.29426723  0.73778609    -0.74100
C648        C  0.13818327  0.24199744  0.62882314     0.94000
O649        O  0.21855190  0.26809988  0.81335468    -0.73900
O650        O  0.13266840  0.26354688  0.65676164    -0.81500
Mg651      Mg  0.28267469  0.27904169  0.81732226     1.58000
C652        C  0.26781869  0.15562620  0.61133982     0.93900
O653        O  0.34666646  0.28746611  0.83109416    -0.79700
H654        H  0.34666724  0.24008400  0.66783184    -0.05100
C655        C  0.19711700  0.18979022  0.70722298     0.88900
O656        O  0.23794858  0.33573647  0.69103779    -0.74200
O657        O  0.29318982  0.22933436  0.78489679    -0.87000
O658        O  0.28160062  0.14909505  0.64385493    -0.79800
C659        C  0.34993240  0.13715714  0.74442244     0.94000
C660        C  0.37699931  0.26902306  0.82546278     0.93900
Mg661      Mg  0.23059005  0.23339358  0.64085753     1.58000
O662        O  0.16909930  0.22479577  0.62382321    -0.79700
O663        O  0.29337831  0.24343157  0.64811916    -0.74000
O664        O  0.35661613  0.16895171  0.75915092    -0.79800
O665        O  0.27104635  0.33188593  0.85066822    -0.81500
O666        O  0.15129164  0.33760628  0.69849495    -0.79800
C667        C  0.31744679  0.23322438  0.67230646     0.88300
O668        O  0.21688168  0.28055723  0.67539610    -0.87000
O669        O  0.22629123  0.19949325  0.69113993    -0.87100
O670        O  0.17315848  0.21354327  0.71841749    -0.74100
Mg671      Mg  0.34218201  0.23093998  0.74935688     1.58000
O672        O  0.32335552  0.13200680  0.72131885    -0.81500
H673        H  0.31477056  0.34771829  0.73799392    -0.05200
O674        O  0.20057381  0.28900858  0.75838219    -0.86800
H675        H  0.16452557  0.26603045  0.79494814    -0.05100
H676        H  0.23696715  0.31660707  0.63724497    -0.05200
C677        C  0.19313756  0.27416736  0.78893010     0.88300
C678        C  0.31054454  0.31913494  0.74711241     0.88900
C679        C  0.23060643  0.31103186  0.66649888     0.88900
H680        H  0.19274692  0.16047782  0.71343649    -0.05200
O681        O  0.26434029  0.17752071  0.76888982    -0.74200
Mg682      Mg  0.16685271  0.27641799  0.70890093     1.58000
H683        H  0.26643082  0.19713570  0.82236448    -0.05200
C684        C  0.24518403  0.35626366  0.84683731     0.93900
O685        O  0.17366415  0.37052948  0.74639191    -0.81500
C686        C  0.14914876  0.36501366  0.72098495     0.94000
O687        O  0.37964832  0.24522711  0.79906664    -0.81500
Mg688      Mg  0.27398829  0.16735497  0.70566955     1.58200
O689        O  0.22358581  0.35675768  0.81824481    -0.79800
O690        O  0.24667380  0.18362515  0.60472476    -0.81500
N691        N  0.00211134  0.44836738  0.74799290    -0.35300
N692        N  0.94826986  0.50975638  0.75468366    -0.55900
N693        N  0.00903759  0.56244627  0.73835733    -0.35300
N694        N  0.06248329  0.50189798  0.73596710    -0.55900
C695        C  0.97180979  0.43047440  0.76243622     0.28300
C696        C  0.03285838  0.42719864  0.75567320     0.28300
C697        C  0.98127720  0.58585888  0.74937831     0.28200
C698        C  0.04178934  0.58151569  0.74095641     0.28200
C699        C  0.92441930  0.48041769  0.75138240     0.36900
C700        C  0.92809743  0.54104492  0.74668452     0.36900
C701        C  0.08083605  0.46975143  0.72837442     0.36900
C702        C  0.08437452  0.52988971  0.72291525     0.36900
C703        C  0.98340802  0.39750165  0.77960966    -0.20600
C704        C  0.02190202  0.39540928  0.77531349    -0.20600
C705        C  0.99647748  0.62015166  0.75918870    -0.20600
C706        C  0.03468263  0.61735008  0.75409001    -0.20600
C707        C  0.88895014  0.49320347  0.74160589    -0.21700
C708        C  0.89132554  0.53145948  0.73842268    -0.21700
C709        C  0.11451377  0.47752885  0.71019599    -0.21700
C710        C  0.11634868  0.51555198  0.70614802    -0.21700
C711        C  0.93392521  0.44240723  0.75837500    -0.17000
C712        C  0.06979493  0.43446455  0.74244819    -0.17000
C713        C  0.07749858  0.56810797  0.72962315    -0.17000
C714        C  0.94243033  0.57812836  0.74759018    -0.17000
H715        H  0.96596081  0.37696408  0.79361988     0.15900
H716        H  0.03965393  0.37271260  0.78497464     0.15900
H717        H  0.98152341  0.64476964  0.76871517     0.15900
H718        H  0.05482163  0.63941202  0.75905907     0.15900
H719        H  0.86400684  0.47671407  0.73664784     0.14200
H720        H  0.86856116  0.54989234  0.73036137     0.14200
H721        H  0.13627963  0.45838991  0.70139438     0.14200
H722        H  0.13923951  0.53084121  0.69331214     0.14200
H723        H  0.00117921  0.47152760  0.73013629     0.27400
H724        H  0.00515931  0.53667497  0.72539312     0.27400
N725        N  0.48118209  0.25424256  0.04934637    -0.35300
N726        N  0.54790909  0.26375191  0.00320333    -0.55900
N727        N  0.50051636  0.27935367  0.93703011    -0.35300
N728        N  0.43388222  0.27387702  0.98409974    -0.55900
C729        C  0.50782904  0.25424064  0.07657605     0.28300
C730        C  0.44766005  0.25956382  0.06645489     0.28300
C731        C  0.53477146  0.28845884  0.92294364     0.28200
C732        C  0.47404987  0.29070429  0.91183998     0.28200
C733        C  0.56462129  0.25209540  0.03544998     0.36900
C734        C  0.57530211  0.26654297  0.97690145     0.36900
C735        C  0.40671663  0.26549855  0.00944588     0.36900
C736        C  0.41660770  0.27724842  0.95028540     0.36900
C737        C  0.49095388  0.25881989  0.11143324    -0.20600
C738        C  0.45306782  0.26238068  0.10505870    -0.20600
C739        C  0.52986131  0.30535230  0.88797200    -0.20600
C740        C  0.49175433  0.30673583  0.88103593    -0.20600
C741        C  0.60283736  0.24768005  0.02968195    -0.21700
C742        C  0.60965536  0.25714765  0.99288947    -0.21700
C743        C  0.37208303  0.26407028  0.99185708    -0.21700
C744        C  0.37829942  0.27130843  0.95448248    -0.21700
C745        C  0.54684950  0.24925455  0.07103076    -0.17000
C746        C  0.41209948  0.26060275  0.04856126    -0.17000
C747        C  0.43438584  0.28668199  0.91573145    -0.17000
C748        C  0.57039484  0.27994689  0.93946357    -0.17000
H749        H  0.50447815  0.25973861  0.13868303     0.15900
H750        H  0.43192282  0.26663370  0.12653725     0.15900
H751        H  0.55144901  0.31543354  0.86906254     0.15900
H752        H  0.47861994  0.31841208  0.85615227     0.15900
H753        H  0.62391425  0.23979918  0.05018917     0.14200
H754        H  0.63713459  0.25791243  0.97995415     0.14200
H755        H  0.34507991  0.25831958  0.00461584     0.14200
H756        H  0.35684959  0.27201464  0.93293590     0.14200
H757        H  0.48509031  0.24734041  0.02126732     0.27400
H758        H  0.49568824  0.26312093  0.96075116     0.27400
N759        N  0.44568028  0.74618448  0.00615967    -0.35300
N760        N  0.50064305  0.74845684  0.06727603    -0.55900
N761        N  0.55921325  0.73345107  0.01372510    -0.35300
N762        N  0.50551253  0.73791948  0.95189679    -0.55900
C763        C  0.42589859  0.76441169  0.03307637     0.28300
C764        C  0.42698645  0.75074434  0.97334580     0.28300
C765        C  0.57923334  0.73716228  0.04582104     0.28200
C766        C  0.58286629  0.74006382  0.98461656     0.28200
C767        C  0.46808820  0.75001486  0.08667333     0.36900
C768        C  0.52653326  0.73401161  0.09108504     0.36900
C769        C  0.47630600  0.72914345  0.92924189     0.36900
C770        C  0.53724966  0.73016705  0.93244576     0.36900
C771        C  0.39440698  0.78086799  0.01704046    -0.20600
C772        C  0.39479017  0.77173803  0.97943602    -0.20600
C773        C  0.61612397  0.74603115  0.03707983    -0.20600
C774        C  0.61837212  0.74805050  0.99845987    -0.20600
C775        C  0.47323703  0.73680708  0.12302487    -0.21700
C776        C  0.51011355  0.72587401  0.12557178    -0.21700
C777        C  0.48961367  0.71571112  0.89516175    -0.21700
C778        C  0.52822314  0.71694944  0.89698194    -0.21700
C779        C  0.43389682  0.76365647  0.07211240    -0.17000
C780        C  0.43810903  0.73624206  0.93809800    -0.17000
C781        C  0.57419754  0.73569087  0.94603920    -0.17000
C782        C  0.56525193  0.73122212  0.08263140    -0.17000
H783        H  0.37303439  0.79730409  0.03103933     0.15900
H784        H  0.37412869  0.78024917  0.95875872     0.15900
H785        H  0.63906913  0.75061318  0.05646964     0.15900
H786        H  0.64353785  0.75391949  0.98239853     0.15900
H787        H  0.45236425  0.73435991  0.14506671     0.14200
H788        H  0.52322052  0.71360093  0.15016012     0.14200
H789        H  0.47333935  0.70658863  0.87120644     0.14200
H790        H  0.54745175  0.70862730  0.87491559     0.14200
H791        H  0.46825886  0.72817186  0.01042974     0.27400
H792        H  0.53226831  0.72260205  0.01196633     0.27400
C793        C  0.40956261  0.27264416  0.85162966    -0.15200
C794        C  0.40879841  0.29397262  0.88282345    -0.30300
H795        H  0.43287499  0.25334315  0.84780222     0.13900
H796        H  0.38469156  0.31208308  0.88744945     0.14400
C797        C  0.11718716  0.39078825  0.71684983    -0.15200
C798        C  0.09938563  0.40533334  0.74678703    -0.30300
H799        H  0.10717141  0.39715220  0.68864106     0.13900
H800        H  0.10725602  0.39665933  0.77506091     0.14400
C801        C  0.27480230  0.12873602  0.58078539    -0.15200
C802        C  0.26701810  0.09222976  0.58596937    -0.30300
H803        H  0.28309226  0.13939719  0.55338715     0.13900
H804        H  0.25864778  0.08315011  0.61400018     0.14400
C805        C  0.40475544  0.77519966  0.09982502    -0.15200
C806        C  0.37101348  0.75865902  0.10044207    -0.30300
H807        H  0.41352596  0.79189919  0.12377011     0.13900
H808        H  0.36400968  0.73872702  0.07850784     0.14400
C809        C  0.23027924  0.87906143  0.38101886    -0.15200
C810        C  0.26108841  0.89250671  0.39776564    -0.30300
H811        H  0.20270686  0.88947988  0.38896898     0.13900
H812        H  0.28868641  0.88152157  0.39074137     0.14400
C813        C  0.08493020  0.59163999  0.25997314    -0.15200
C814        C  0.10129622  0.60719804  0.22951443    -0.30300
H815        H  0.09404550  0.59955015  0.28800222     0.13900
H816        H  0.09339782  0.59755566  0.20165265     0.14400
C817        C  0.58418344  0.27197640  0.12466525    -0.15200
C818        C  0.57127165  0.24292890  0.10453955    -0.30300
H819        H  0.57432692  0.29999529  0.11780420     0.13900
H820        H  0.58312378  0.21517863  0.10871637     0.14400
C821        C  0.86450617  0.39615602  0.26022324    -0.15200
C822        C  0.89435924  0.39523584  0.28334093    -0.30300
H823        H  0.86152345  0.41864219  0.23972650     0.13900
H824        H  0.89923018  0.37117742  0.30152103     0.14400
C825        C  0.75751063  0.10884087  0.41124511    -0.15200
C826        C  0.72614182  0.12226829  0.39497425    -0.30300
H827        H  0.78479254  0.12016067  0.40368809     0.13900
H828        H  0.69914800  0.11031216  0.40264293     0.14400
C829        C  0.61686893  0.76386612  0.89873202    -0.15200
C830        C  0.60612489  0.73389668  0.91907335    -0.30300
H831        H  0.60108274  0.78981876  0.90107363     0.13900
H832        H  0.62097914  0.70745217  0.91639751     0.14400
C833        C  0.88541691  0.61562948  0.76403502    -0.15200
C834        C  0.91668370  0.61102450  0.74334060    -0.30300
H835        H  0.87840529  0.59489517  0.78535991     0.13900
H836        H  0.92441365  0.63238542  0.72291377     0.14400
C837        C  0.77489588  0.91103752  0.63635421    -0.15200
C838        C  0.76711098  0.90686807  0.59942323    -0.30300
H839        H  0.78046103  0.93847329  0.64803765     0.13900
H840        H  0.76118846  0.87887837  0.58913661     0.14400
C841        C  0.72307308  0.40811218  0.09615088    -0.15200
C842        C  0.74954465  0.38158044  0.10061758    -0.30300
H843        H  0.69970581  0.40964333  0.11580101     0.13900
H844        H  0.77483912  0.38249632  0.08350079     0.14400
C845        C  0.73213726  0.60509978  0.90357925    -0.15200
C846        C  0.72400712  0.59960004  0.86701498    -0.30300
H847        H  0.73891072  0.63327581  0.91279956     0.13900
H848        H  0.71793144  0.57186685  0.85630307     0.14400
C849        C  0.26746900  0.39360860  0.90073409    -0.15200
C850        C  0.24061990  0.38613048  0.87528684    -0.30300
H851        H  0.29200383  0.37555198  0.90264691     0.13900
H852        H  0.21583153  0.40387467  0.87389977     0.14400
C853        C  0.24309968  0.58597283  0.09628912    -0.15200
C854        C  0.27131088  0.60125484  0.11590068    -0.30300
H855        H  0.21437525  0.59514671  0.10098710     0.13900
H856        H  0.30009342  0.59392326  0.10872770     0.14400
C857        C  0.40557687  0.10837919  0.77359255    -0.15200
C858        C  0.37425942  0.10510582  0.75303266    -0.30300
H859        H  0.41373633  0.13544430  0.78475195     0.13900
H860        H  0.36776282  0.07851507  0.73978134     0.14400
C861        C  0.61541171  0.89831381  0.74777606    -0.15200
C862        C  0.58633726  0.90227137  0.77153122    -0.30300
H863        H  0.62093368  0.91984625  0.72680828     0.13900
H864        H  0.58040920  0.88036495  0.79198613     0.14400
C865        C  0.40808833  0.73138623  0.90920052    -0.15200
C866        C  0.40874007  0.75002101  0.87629285    -0.30300
H867        H  0.38283480  0.71642797  0.91746065     0.13900
H868        H  0.43289519  0.76738542  0.86967440     0.14400
C869        C  0.14295179  0.59061030  0.74063707    -0.15200
C870        C  0.10865150  0.59570214  0.72521729    -0.30300
H871        H  0.14895274  0.56514628  0.75634894     0.13900
H872        H  0.10186806  0.62243179  0.71218150     0.14400
C873        C  0.27471430  0.86448381  0.59105661    -0.15200
C874        C  0.26622754  0.90108378  0.59349635    -0.30300
H875        H  0.28278575  0.85211795  0.56439137     0.13900
H876        H  0.25802453  0.91207036  0.62081125     0.14400
C877        C  0.25391345  0.62342233  0.90230736    -0.15200
C878        C  0.23849390  0.58906318  0.89904004    -0.30300
H879        H  0.26902967  0.63042034  0.92787207     0.13900
H880        H  0.22528318  0.58145620  0.87261608     0.14400
C881        C  0.36491100  0.91294336  0.76568533    -0.15200
C882        C  0.39386132  0.91429864  0.79000893    -0.30300
H883        H  0.36050408  0.93620338  0.74636378     0.13900
H884        H  0.39943460  0.89028179  0.80802261     0.14400
C885        C  0.09692961  0.70231587  0.40917525    -0.15200
C886        C  0.13098812  0.71792805  0.40593013    -0.30300
H887        H  0.08555828  0.68686060  0.38550043     0.13900
H888        H  0.14045891  0.73675691  0.42791774     0.14400
C889        C  0.89956594  0.71566543  0.59839929    -0.15200
C890        C  0.87055525  0.73980778  0.59835892    -0.30300
H891        H  0.90319692  0.69675134  0.62215331     0.13900
H892        H  0.86789701  0.76000547  0.57556406     0.14400
C893        C  0.09494415  0.71255928  0.60802238    -0.15200
C894        C  0.12184309  0.73879616  0.61006884    -0.30300
H895        H  0.09192930  0.69195295  0.63039249     0.13900
H896        H  0.12420764  0.75956587  0.58775334     0.14400
C897        C  0.59307307  0.74308370  0.14556181    -0.15200
C898        C  0.59328214  0.72403811  0.11300051    -0.30300
H899        H  0.57053061  0.76278612  0.15129361     0.13900
H900        H  0.61736787  0.70659717  0.10614890     0.14400
C901        C  0.87081517  0.60051180  0.27943298    -0.15200
C902        C  0.88889182  0.58304079  0.25157234    -0.30300
H903        H  0.88007804  0.59660440  0.30834114     0.13900
H904        H  0.88241401  0.58956244  0.22237332     0.14400
C905        C  0.75085171  0.87821421  0.40809056    -0.15200
C906        C  0.76095903  0.91422045  0.40362793    -0.30300
H907        H  0.74209174  0.86760929  0.43537497     0.13900
H908        H  0.76991519  0.92334820  0.37581802     0.14400
C909        C  0.74869009  0.61412351  0.11843305    -0.15200
C910        C  0.71906707  0.60479991  0.09702382    -0.30300
H911        H  0.77415376  0.59735591  0.11701123     0.13900
H912        H  0.69343556  0.62126485  0.09862437     0.14400
C913        C  0.91116693  0.75122638  0.37402790    -0.15200
C914        C  0.91188836  0.76454663  0.40930521    -0.30300
H915        H  0.93382398  0.73315916  0.36452491     0.13900
H916        H  0.88768733  0.77999596  0.41964835     0.14400
C917        C  0.40794665  0.88862210  0.24298848    -0.15200
C918        C  0.39559196  0.86877847  0.27275597    -0.30300
H919        H  0.39562541  0.88420402  0.21539585     0.13900
H920        H  0.40608903  0.87530456  0.30067914     0.14400
C921        C  0.61954377  0.09829769  0.23497847    -0.15200
C922        C  0.58554166  0.09558689  0.21911867    -0.30300
H923        H  0.62975609  0.07556986  0.25267588     0.13900
H924        H  0.57348856  0.11977381  0.20489756     0.14400
C925        C  0.60138578  0.90020802  0.22603660    -0.15200
C926        C  0.63478876  0.90496983  0.24320369    -0.30300
H927        H  0.59460118  0.87307777  0.21416232     0.13900
H928        H  0.64095102  0.93138182  0.25690856     0.14400
C929        C  0.62664660  0.25685911  0.90551114    -0.15200
C930        C  0.60476352  0.28583803  0.91582892    -0.30300
H931        H  0.61900365  0.22885071  0.91471714     0.13900
H932        H  0.60960773  0.31327692  0.90348485     0.14400
C933        C  0.90250768  0.38118425  0.74516372    -0.15200
C934        C  0.90235545  0.41477428  0.76239832    -0.30300
H935        H  0.92706489  0.37300086  0.72895712     0.13900
H936        H  0.87698440  0.42381671  0.77676599     0.14400
C937        C  0.75201919  0.10213725  0.60504877    -0.15200
C938        C  0.75940553  0.09760967  0.64197332    -0.30300
H939        H  0.74361057  0.12984275  0.59541686     0.13900
H940        H  0.76755391  0.07072417  0.65367221     0.14400
C941        C  0.74075334  0.41673900  0.86443424    -0.15200
C942        C  0.74761278  0.41143615  0.90144480    -0.30300
H943        H  0.73310228  0.44394209  0.85316112     0.13900
H944        H  0.75540312  0.38343935  0.91069441     0.14400
C945        C  0.59794978  0.13161357  0.76306673    -0.15200
C946        C  0.59880842  0.09685317  0.74855080    -0.30300
H947        H  0.57351673  0.14041722  0.77913265     0.13900
H948        H  0.62416583  0.08723248  0.73454079     0.14400
C949        C  0.37823303  0.25921145  0.07294237    -0.15200
C950        C  0.36922064  0.22806973  0.09225077    -0.30300
H951        H  0.36273038  0.28507773  0.07718316     0.13900
H952        H  0.38522340  0.20257336  0.08750079     0.14400
C953        C  0.10773465  0.38351862  0.23771999    -0.15200
C954        C  0.08899045  0.39469294  0.26859631    -0.30300
H955        H  0.10187287  0.39718608  0.21096648     0.13900
H956        H  0.09425661  0.38135024  0.29560966     0.14400
C957        C  0.26372471  0.08600847  0.38975882    -0.15200
C958        C  0.23262293  0.09914273  0.37308105    -0.30300
H959        H  0.29123357  0.09651608  0.38181337     0.13900
H960        H  0.20522130  0.08939050  0.38231134     0.14400
C961        C  0.28937723  0.39786871  0.09421041    -0.15200
C962        C  0.26580114  0.39525060  0.12362591    -0.30300
H963        H  0.30970997  0.37577555  0.08890634     0.13900
H964        H  0.24358599  0.41591542  0.12690209     0.14400
C965        C  0.39866657  0.08285699  0.26974187    -0.15200
C966        C  0.39626270  0.11532075  0.25054042    -0.30300
H967        H  0.37598537  0.07490840  0.28860777     0.13900
H968        H  0.41713415  0.12146421  0.22904560     0.14400
C969        C  0.90081574  0.26745983  0.38808437    -0.15200
C970        C  0.88902723  0.23576898  0.37150163    -0.30300
H971        H  0.88733535  0.29395156  0.38129508     0.13900
H972        H  0.90048331  0.20900106  0.38054663     0.14400
C973        C  0.08069782  0.26310383  0.59684785    -0.15200
C974        C  0.10924064  0.23864380  0.59937656    -0.30300
H975        H  0.07591766  0.28333904  0.61911502     0.13900
H976        H  0.11347636  0.21830133  0.57708381     0.14400
C977        C  0.88970753  0.27877155  0.58613230    -0.15200
C978        C  0.85884105  0.25750701  0.58927708    -0.30300
H979        H  0.89740454  0.29690651  0.60936377     0.13900
H980        H  0.85227541  0.23770390  0.56710067     0.14400
C981        C  0.09474847  0.28160534  0.39978825    -0.15200
C982        C  0.12664099  0.26125593  0.39937218    -0.30300
H983        H  0.08851100  0.30000048  0.37615041     0.13900
H984        H  0.13112407  0.24017105  0.42104258     0.14400
loop_ 
_geom_bond_atom_site_label_1 
_geom_bond_atom_site_label_2 
_geom_bond_distance 
_geom_bond_site_symmetry_2 
_ccdc_geom_bond_type 
N1            C6   1.353       .  A
N1            C5   1.353   1_655  A
N1           H33   1.035       .  S
N2            C9   1.352       .  A
N2           C10   1.353       .  A
N3            C8   1.354       .  A
N3            C7   1.354   1_655  A
N3           H34   1.050       .  S
N4           C11   1.355       .  A
N4           C12   1.352       .  A
C5           C13   1.387       .  A
C5           C21   1.412       .  A
C6           C22   1.413       .  A
C6           C14   1.387       .  A
C7           C15   1.387       .  A
C7           C24   1.419       .  A
C8           C23   1.419       .  A
C8           C16   1.388       .  A
C9           C21   1.416       .  A
C9           C17   1.386       .  A
C10          C24   1.416       .  A
C10          C18   1.386       .  A
C11          C19   1.385       .  A
C11          C22   1.418       .  A
C12          C20   1.388       .  A
C12          C23   1.418       .  A
C13          C14   1.372   1_455  A
C13          H25   1.082       .  S
C14          H26   1.083       .  S
C15          C16   1.377   1_455  A
C15          H27   1.082       .  S
C16          H28   1.082       .  S
C17          C18   1.373       .  A
C17          H29   1.082       .  S
C18          H30   1.082       .  S
C19          C20   1.376       .  A
C19          H31   1.082       .  S
C20          H32   1.082       .  S
C21         C973   1.485       .  S
C22         C977   1.493       .  S
C23         C969   1.487       .  S
C24         C981   1.496       .  S
O35         Mg37   2.157       .  S
O35         Mg43   2.151       .  S
O35          C70   1.236       .  S
C36          H75   1.081       .  S
C36          O49   1.234       .  S
C36          O73   1.268       .  A
Mg37         O66   2.163       .  S
Mg37         O81   2.283       .  S
Mg37         O77   2.268       .  S
Mg37         O48   2.294       .  S
O38         Mg80   2.161       .  S
O38         Mg63   2.143       .  S
O38          C59   1.236       .  S
O39          C70   1.271       .  A
O39         Mg63   2.302       .  S
C40         C982   1.480       .  S
C40          O42   1.273       .  A
C40          O54   1.275       .  A
O41          C69   1.271       .  A
O41         Mg43   2.302       .  S
O42         Mg74   2.277       .  S
Mg43         O49   2.131       .  S
Mg43         O57   2.251       .  S
Mg43         O45   2.297       .  S
C44         C958   1.469       .  S
C44          O82   1.269       .  A
C44          O50   1.275       .  A
O45          C52   1.274       .  A
H46          C59   1.081       .  S
C47          H72   1.081       .  S
C47          O61   1.235       .  S
C47          O62   1.271       .  A
O48          C71   1.268       .  A
O49         Mg63   2.148       .  S
O50         Mg80   2.287       .  S
C51         C966   1.478       .  S
C51          O64   1.276       .  A
C51          O56   1.273       .  A
C52         C950   1.476       .  S
C52          O79   1.270       .  A
Mg53         O60   2.148       .  S
Mg53         O61   2.169       .  S
Mg53         O54   2.317       .  S
Mg53         O55   2.297       .  S
Mg53         O82   2.253       .  S
O55          C59   1.270       .  A
O56         Mg63   2.297       .  S
O57          C76   1.270       .  A
O58          C78   1.277       .  A
O58         Mg74   2.322       .  S
O60         Mg74   2.155       .  S
O60          C71   1.234       .  S
O61         Mg80   2.170       .  S
O62         Mg74   2.310       .  S
Mg63         O79   2.264       .  S
O64         Mg80   2.302       .  S
H65          C70   1.081       .  S
O66         Mg74   2.147       .  S
O66          C69   1.237       .  S
H67          C69   1.081       .  S
H68          C71   1.081       .  S
O73         Mg80   2.294       .  S
C76         C962   1.468       .  S
C76          O81   1.270       .  A
O77          C78   1.271       .  A
C78         C953   1.483       .  S
O83         Mg85   2.160       .  S
O83         Mg91   2.153       .  S
O83         C118   1.236       .  S
C84         H123   1.081       .  S
C84          O97   1.236       .  S
C84         O121   1.272       .  A
Mg85        O114   2.152       .  S
Mg85        O129   2.283       .  S
Mg85        O125   2.257       .  S
Mg85         O96   2.285       .  S
O86        Mg128   2.154       .  S
O86        Mg111   2.150       .  S
O86         C107   1.236       .  S
O87         C118   1.271       .  A
O87        Mg111   2.306       .  S
C88         C938   1.469       .  S
C88          O90   1.272       .  A
C88         O102   1.273       .  A
O89         C117   1.269       .  A
O89         Mg91   2.302       .  S
O90        Mg122   2.275       .  S
Mg91         O97   2.181       .  S
Mg91        O105   2.315       .  S
Mg91         O93   2.275       .  S
C92         C978   1.483       .  S
C92         O130   1.270       .  A
C92          O98   1.280       .  A
O93         C100   1.272       .  A
H94         C107   1.081       .  S
C95         H120   1.081       .  S
C95         O109   1.237       .  S
C95         O110   1.270       .  A
O96         C119   1.267       .  A
O97        Mg111   2.180       .  S
O98        Mg128   2.335       .  S
C99         C933   1.489       .  S
C99         O112   1.274       .  A
C99         O104   1.281       .  A
C100        C941   1.470       .  S
C100        O127   1.273       .  A
Mg101       O108   2.136       .  S
Mg101       O109   2.158       .  S
Mg101       O102   2.280       .  S
Mg101       O103   2.296       .  S
Mg101       O130   2.257       .  S
O103        C107   1.270       .  A
O104       Mg111   2.347       .  S
O105        C124   1.275       .  A
O106        C126   1.279       .  A
O106       Mg122   2.334       .  S
O108       Mg122   2.166       .  S
O108        C119   1.234       .  S
O109       Mg128   2.152       .  S
O110       Mg122   2.298       .  S
Mg111       O127   2.279       .  S
O112       Mg128   2.279       .  S
H113        C118   1.081       .  S
O114       Mg122   2.140       .  S
O114        C117   1.235       .  S
H115        C117   1.081       .  S
H116        C119   1.081       .  S
O121       Mg128   2.311       .  S
C124        C929   1.476       .  S
C124        O129   1.269       .  A
O125        C126   1.271       .  A
C126        C945   1.481       .  S
N131        C136   1.352       .  A
N131        C135   1.354       .  A
N131        H163   1.043       .  S
N132        C139   1.354   1_565  A
N132        C140   1.353       .  A
N133        C138   1.355       .  A
N133        C137   1.354       .  A
N133        H164   1.039       .  S
N134        C141   1.351   1_565  A
N134        C142   1.351       .  A
C135        C143   1.388       .  A
C135        C151   1.417       .  A
C136        C152   1.412       .  A
C136        C144   1.386       .  A
C137        C145   1.385       .  A
C137        C154   1.413       .  A
C138        C153   1.419       .  A
C138        C146   1.389       .  A
C139        C151   1.417       .  A
C139        C147   1.386       .  A
C140        C154   1.416       .  A
C140        C148   1.386       .  A
C141        C149   1.386       .  A
C141        C152   1.412       .  A
C142        C150   1.385       .  A
C142        C153   1.412       .  A
C143        C144   1.375       .  A
C143        H155   1.082       .  S
C144        H156   1.082       .  S
C145        C146   1.376       .  A
C145        H157   1.082       .  S
C146        H158   1.082       .  S
C147        C148   1.375   1_545  A
C147        H159   1.082       .  S
C148        H160   1.082       .  S
C149        C150   1.375   1_545  A
C149        H161   1.082       .  S
C150        H162   1.082       .  S
C151        C965   1.497       .  S
C152        C922   1.486       .  S
C153        C925   1.492       .  S
C154        C917   1.488       .  S
O165       Mg167   2.138       .  S
O165       Mg173   2.143       .  S
O165        C200   1.234       .  S
C166        H205   1.081       .  S
C166        O179   1.236       .  S
C166        O203   1.270       .  A
Mg167       O196   2.148       .  S
Mg167       O211   2.256       .  S
Mg167       O207   2.225       .  S
Mg167       O178   2.285       .  S
O168       Mg210   2.154       .  S
O168       Mg193   2.162       .  S
O168        C189   1.237       .  S
O169        C200   1.268       .  A
O169       Mg193   2.298       .  S
C170        C905   1.471       .  S
C170        O172   1.273       .  A
C170        O184   1.279       .  A
O171        C199   1.270       .  A
O171       Mg173   2.303       .  S
O172       Mg204   2.258       .  S
Mg173       O179   2.151       .  S
Mg173       O187   2.277       .  S
Mg173       O175   2.303       .  S
C174        C926   1.481       .  S
C174        O212   1.273       .  A
C174        O180   1.274       .  A
O175        C182   1.274       .  A
H176        C189   1.081       .  S
C177        H202   1.081       .  S
C177        O191   1.234       .  S
C177        O192   1.268       .  A
O178        C201   1.268       .  A
O179       Mg193   2.156       .  S
O180       Mg210   2.292       .  S
C181        C897   1.473       .  S
C181        O194   1.269       .  A
C181        O186   1.275       .  A
C182        C909   1.478       .  S
C182        O209   1.274       .  A
Mg183       O190   2.144       .  S
Mg183       O191   2.159       .  S
Mg183       O184   2.321       .  S
Mg183       O185   2.310       .  S
Mg183       O212   2.284       .  S
O185        C189   1.272       .  A
O186       Mg193   2.303       .  S
O187        C206   1.272       .  A
O188        C208   1.279       .  A
O188       Mg204   2.339       .  S
O190       Mg204   2.177       .  S
O190        C201   1.236       .  S
O191       Mg210   2.149       .  S
O192       Mg204   2.296       .  S
Mg193       O209   2.282       .  S
O194       Mg210   2.249       .  S
H195        C200   1.081       .  S
O196       Mg204   2.126       .  S
O196        C199   1.236       .  S
H197        C199   1.081       .  S
H198        C201   1.081       .  S
O203       Mg210   2.301       .  S
C206        C901   1.460       .  S
C206        O211   1.264       .  A
O207        C208   1.265       .  A
C208        C913   1.478       .  S
N213        C218   1.355       .  A
N213        C217   1.353       .  A
N213        H245   1.041       .  S
N214        C221   1.353   1_455  A
N214        C222   1.350       .  A
N215        C220   1.351       .  A
N215        C219   1.356       .  A
N215        H246   1.039       .  S
N216        C223   1.352       .  A
N216        C224   1.352   1_655  A
C217        C225   1.386       .  A
C217        C233   1.414       .  A
C218        C234   1.418       .  A
C218        C226   1.387       .  A
C219        C227   1.388       .  A
C219        C236   1.421       .  A
C220        C235   1.416       .  A
C220        C228   1.386       .  A
C221        C233   1.417       .  A
C221        C229   1.387       .  A
C222        C236   1.413       .  A
C222        C230   1.386       .  A
C223        C231   1.387       .  A
C223        C234   1.414       .  A
C224        C232   1.387       .  A
C224        C235   1.413       .  A
C225        C226   1.375       .  A
C225        H237   1.082       .  S
C226        H238   1.082       .  S
C227        C228   1.381       .  A
C227        H239   1.082       .  S
C228        H240   1.082       .  S
C229        C230   1.375   1_655  A
C229        H241   1.082       .  S
C230        H242   1.083       .  S
C231        C232   1.371   1_655  A
C231        H243   1.082       .  S
C232        H244   1.082       .  S
C233        C914   1.496       .  S
C234        C889   1.494       .  S
C235        C893   1.486       .  S
C236        C885   1.494       .  S
O247       Mg249   2.169       .  S
O247       Mg255   2.154       .  S
O247        C282   1.237       .  S
C248        H287   1.081       .  S
C248        O261   1.235       .  S
C248        O285   1.268       .  A
Mg249       O278   2.162       .  S
Mg249       O293   2.332       .  S
Mg249       O289   2.283       .  S
Mg249       O260   2.308       .  S
O250       Mg292   2.168       .  S
O250       Mg275   2.140       .  S
O250        C271   1.233       .  S
O251        C282   1.272       .  A
O251       Mg275   2.305       .  S
C252        C869   1.478       .  S
C252        O254   1.272       .  A
C252        O266   1.273       .  A
O253        C281   1.274       .  A
O253       Mg255   2.313       .  S
O254       Mg286   2.278       .  S
Mg255       O261   2.132       .  S
Mg255       O269   2.257       .  S
Mg255       O257   2.336       .  S
C256        C894   1.478       .  S
C256        O294   1.273       .  A
C256        O262   1.275       .  A
O257        C264   1.280       .  A
H258        C271   1.081       .  S
C259        H284   1.081       .  S
C259        O273   1.234       .  S
C259        O274   1.269       .  A
O260        C283   1.271       .  A
O261       Mg275   2.148       .  S
O262       Mg292   2.307       .  S
C263        C873   1.472       .  S
C263        O276   1.272       .  A
C263        O268   1.277       .  A
C264        C881   1.488       .  S
C264        O291   1.274       .  A
Mg265       O272   2.159       .  S
Mg265       O273   2.164       .  S
Mg265       O266   2.288       .  S
Mg265       O267   2.287       .  S
Mg265       O294   2.268       .  S
O267        C271   1.267       .  A
O268       Mg275   2.307       .  S
O269        C288   1.270       .  A
O270        C290   1.276       .  A
O270       Mg286   2.317       .  S
O272       Mg286   2.165       .  S
O272        C283   1.235       .  S
O273       Mg292   2.156       .  S
O274       Mg286   2.299       .  S
Mg275       O291   2.285       .  S
O276       Mg292   2.266       .  S
H277        C282   1.081       .  S
O278       Mg286   2.172       .  S
O278        C281   1.238       .  S
H279        C281   1.081       .  S
H280        C283   1.081       .  S
O285       Mg292   2.288       .  S
C288        C866   1.481       .  S
C288        O293   1.278       .  A
O289        C290   1.273       .  A
C290        C877   1.486       .  S
N295        C300   1.356       .  A
N295        C299   1.352       .  A
N295        H327   1.038       .  S
N296        C303   1.353   1_545  A
N296        C304   1.355       .  A
N297        C302   1.351       .  A
N297        C301   1.355       .  A
N297        H328   1.041       .  S
N298        C305   1.353   1_545  A
N298        C306   1.349       .  A
C299        C307   1.387       .  A
C299        C315   1.413       .  A
C300        C316   1.416       .  A
C300        C308   1.388       .  A
C301        C309   1.386       .  A
C301        C318   1.415       .  A
C302        C317   1.413       .  A
C302        C310   1.389       .  A
C303        C315   1.417       .  A
C303        C311   1.386       .  A
C304        C318   1.414       .  A
C304        C312   1.385       .  A
C305        C313   1.384       .  A
C305        C316   1.412       .  A
C306        C314   1.388       .  A
C306        C317   1.414       .  A
C307        C308   1.372       .  A
C307        H319   1.082       .  S
C308        H320   1.082       .  S
C309        C310   1.375       .  A
C309        H321   1.082       .  S
C310        H322   1.083       .  S
C311        C312   1.373   1_565  A
C311        H323   1.082       .  S
C312        H324   1.082       .  S
C313        C314   1.376   1_565  A
C313        H325   1.082       .  S
C314        H326   1.082       .  S
C315        C862   1.488       .  S
C316        C882   1.494       .  S
C317        C857   1.480       .  S
C318        C946   1.500       .  S
N329        C334   1.357   1_556  A
N329        C333   1.355       .  A
N329        H361   1.039       .  S
N330        C337   1.357       .  A
N330        C338   1.356       .  A
N331        C336   1.354   1_556  A
N331        C335   1.353       .  A
N331        H362   1.039       .  S
N332        C339   1.350       .  A
N332        C340   1.351       .  A
C333        C341   1.386       .  A
C333        C349   1.420       .  A
C334        C350   1.420       .  A
C334        C342   1.388       .  A
C335        C343   1.388       .  A
C335        C352   1.413       .  A
C336        C351   1.414       .  A
C336        C344   1.387       .  A
C337        C349   1.423       .  A
C337        C345   1.388       .  A
C338        C352   1.420       .  A
C338        C346   1.385       .  A
C339        C347   1.389       .  A
C339        C350   1.414       .  A
C340        C348   1.384       .  A
C340        C351   1.411       .  A
C341        C342   1.376   1_556  A
C341        H353   1.082       .  S
C342        H354   1.082       .  S
C343        C344   1.372   1_556  A
C343        H355   1.082       .  S
C344        H356   1.082       .  S
C345        C346   1.374       .  A
C345        H357   1.082       .  S
C346        H358   1.082       .  S
C347        C348   1.366       .  A
C347        H359   1.080       .  S
C348        H360   1.082       .  S
C349        C878   1.504       .  S
C350        C853   1.489       .  S
C351        C961   1.486       .  S
C352        C849   1.491       .  S
N363        C368   1.356       .  A
N363        C367   1.353   1_556  A
N363        H395   1.041   1_556  S
N364        C371   1.352       .  A
N364        C372   1.355       .  A
N365        C370   1.353   1_554  A
N365        C369   1.352       .  A
N365        H396   1.041       .  S
N366        C373   1.350       .  A
N366        C374   1.349       .  A
C367        C375   1.387       .  A
C367        C383   1.416       .  A
C368        C384   1.418       .  A
C368        C376   1.388       .  A
C369        C377   1.388       .  A
C369        C386   1.413       .  A
C370        C385   1.415       .  A
C370        C378   1.388       .  A
C371        C383   1.417       .  A
C371        C379   1.387       .  A
C372        C386   1.419       .  A
C372        C380   1.387       .  A
C373        C381   1.385       .  A
C373        C384   1.409       .  A
C374        C382   1.386       .  A
C374        C385   1.410       .  A
C375        C376   1.375   1_554  A
C375        H387   1.082       .  S
C376        H388   1.082       .  S
C377        C378   1.375   1_554  A
C377        H389   1.082       .  S
C378        H390   1.082       .  S
C379        C380   1.376       .  A
C379        H391   1.082       .  S
C380        H392   1.082       .  S
C381        C382   1.373       .  A
C381        H393   1.082       .  S
C382        H394   1.082       .  S
C383        C841   1.488       .  S
C384        C942   1.496       .  S
C385        C845   1.489       .  S
C386        C910   1.491       .  S
O397       Mg399   2.153       .  S
O397       Mg405   2.154       .  S
O397        C432   1.232       .  S
C398        H437   1.081       .  S
C398        O411   1.237       .  S
C398        O435   1.271       .  A
Mg399       O428   2.165       .  S
Mg399       O443   2.297       .  S
Mg399       O439   2.270       .  S
Mg399       O410   2.289       .  S
O400       Mg442   2.171       .  S
O400       Mg425   2.163       .  S
O400        C421   1.236       .  S
O401        C432   1.268       .  A
O401       Mg425   2.299       .  S
C402        C890   1.476       .  S
C402        O404   1.272       .  A
C402        O416   1.278       .  A
O403        C431   1.269       .  A
O403       Mg405   2.295       .  S
O404       Mg436   2.259       .  S
Mg405       O411   2.160       .  S
Mg405       O419   2.275       .  S
Mg405       O407   2.323       .  S
C406        C833   1.482       .  S
C406        O444   1.275       .  A
C406        O412   1.273       .  A
O407        C414   1.276       .  A
H408        C421   1.081       .  S
C409        H434   1.081       .  S
C409        O423   1.234       .  S
C409        O424   1.268       .  A
O410        C433   1.269       .  A
O411       Mg425   2.162       .  S
O412       Mg442   2.301       .  S
C413        C846   1.466       .  S
C413        O426   1.267       .  A
C413        O418   1.271       .  A
C414        C829   1.481       .  S
C414        O441   1.273       .  A
Mg415       O422   2.150       .  S
Mg415       O423   2.148       .  S
Mg415       O416   2.318       .  S
Mg415       O417   2.309       .  S
Mg415       O444   2.293       .  S
O417        C421   1.272       .  A
O418       Mg425   2.281       .  S
O419        C438   1.275       .  A
O420        C440   1.275       .  A
O420       Mg436   2.302       .  S
O422       Mg436   2.168       .  S
O422        C433   1.235       .  S
O423       Mg442   2.135       .  S
O424       Mg436   2.290       .  S
Mg425       O441   2.272       .  S
O426       Mg442   2.249       .  S
H427        C432   1.081       .  S
O428       Mg436   2.146       .  S
O428        C431   1.235       .  S
H429        C431   1.081       .  S
H430        C433   1.081       .  S
O435       Mg442   2.303       .  S
C438        C861   1.476       .  S
C438        O443   1.273       .  A
O439        C440   1.271       .  A
C440        C837   1.474       .  S
N445        C450   1.354       .  A
N445        C449   1.356       .  A
N445        H477   1.042       .  S
N446        C453   1.350   1_545  A
N446        C454   1.350       .  A
N447        C452   1.353       .  A
N447        C451   1.353       .  A
N447        H478   1.041       .  S
N448        C455   1.352   1_545  A
N448        C456   1.354       .  A
C449        C457   1.386       .  A
C449        C465   1.416       .  A
C450        C466   1.421       .  A
C450        C458   1.389       .  A
C451        C459   1.388       .  A
C451        C468   1.415       .  A
C452        C467   1.411       .  A
C452        C460   1.386       .  A
C453        C465   1.410       .  A
C453        C461   1.385       .  A
C454        C468   1.411       .  A
C454        C462   1.386       .  A
C455        C463   1.388       .  A
C455        C466   1.418       .  A
C456        C464   1.385       .  A
C456        C467   1.415       .  A
C457        C458   1.377       .  A
C457        H469   1.082       .  S
C458        H470   1.082       .  S
C459        C460   1.376       .  A
C459        H471   1.082       .  S
C460        H472   1.082       .  S
C461        C462   1.374   1_565  A
C461        H473   1.082       .  S
C462        H474   1.082       .  S
C463        C464   1.375   1_565  A
C463        H475   1.082       .  S
C464        H476   1.082       .  S
C465        C838   1.498       .  S
C466        C906   1.499       .  S
C467        C825   1.488       .  S
C468        C937   1.492       .  S
O479       Mg481   2.156       .  S
O479       Mg487   2.174       .  S
O479        C514   1.235       .  S
C480        H519   1.081       .  S
C480        O493   1.234       .  S
C480        O517   1.268       .  A
Mg481       O510   2.156       .  S
Mg481       O525   2.324       .  S
Mg481       O521   2.287       .  S
Mg481       O492   2.308       .  S
O482       Mg524   2.160       .  S
O482       Mg507   2.149       .  S
O482        C503   1.233       .  S
O483        C514   1.269       .  A
O483       Mg507   2.293       .  S
C484        C826   1.479       .  S
C484        O486   1.270       .  A
C484        O498   1.274       .  A
O485        C513   1.268       .  A
O485       Mg487   2.294       .  S
O486       Mg518   2.266       .  S
Mg487       O493   2.137       .  S
Mg487       O501   2.264       .  S
Mg487       O489   2.317       .  S
C488        C970   1.478       .  S
C488        O526   1.271       .  A
C488        O494   1.274       .  A
O489        C496   1.277       .  A
H490        C503   1.081       .  S
C491        H516   1.081       .  S
C491        O505   1.236       .  S
C491        O506   1.270       .  A
O492        C515   1.271       .  A
O493       Mg507   2.162       .  S
O494       Mg524   2.293       .  S
C495        C821   1.464       .  S
C495        O508   1.268       .  A
C495        O500   1.273       .  A
C496        C842   1.474       .  S
C496        O523   1.270       .  A
Mg497       O504   2.146       .  S
Mg497       O505   2.172       .  S
Mg497       O498   2.301       .  S
Mg497       O499   2.295       .  S
Mg497       O526   2.273       .  S
O499        C503   1.267       .  A
O500       Mg507   2.298       .  S
O501        C520   1.273       .  A
O502        C522   1.272       .  A
O502       Mg518   2.288       .  S
O504       Mg518   2.150       .  S
O504        C515   1.235       .  S
O505       Mg524   2.132       .  S
O506       Mg518   2.296       .  S
Mg507       O523   2.259       .  S
O508       Mg524   2.226       .  S
H509        C514   1.081       .  S
O510       Mg518   2.150       .  S
O510        C513   1.235       .  S
H511        C513   1.081       .  S
H512        C515   1.081       .  S
O517       Mg524   2.296       .  S
C520        C817   1.478       .  S
C520        O525   1.279       .  A
O521        C522   1.275       .  A
C522        C921   1.472       .  S
N527        C532   1.354       .  A
N527        C531   1.352   1_655  A
N527        H559   1.037       .  S
N528        C535   1.356       .  A
N528        C536   1.356       .  A
N529        C534   1.353       .  A
N529        C533   1.353   1_655  A
N529        H560   1.040       .  S
N530        C537   1.347       .  A
N530        C538   1.346       .  A
C531        C539   1.388       .  A
C531        C547   1.418       .  A
C532        C548   1.418       .  A
C532        C540   1.388       .  A
C533        C541   1.387       .  A
C533        C550   1.413       .  A
C534        C549   1.413       .  A
C534        C542   1.387       .  A
C535        C547   1.423       .  A
C535        C543   1.387       .  A
C536        C550   1.419       .  A
C536        C544   1.385       .  A
C537        C545   1.388       .  A
C537        C548   1.407       .  A
C538        C546   1.386       .  A
C538        C549   1.406       .  A
C539        C540   1.379   1_455  A
C539        H551   1.082       .  S
C540        H552   1.082       .  S
C541        C542   1.375   1_455  A
C541        H553   1.082       .  S
C542        H554   1.082       .  S
C543        C544   1.376       .  A
C543        H555   1.082       .  S
C544        H556   1.082       .  S
C545        C546   1.368       .  A
C545        H557   1.081       .  S
C546        H558   1.082       .  S
C547        C813   1.491       .  S
C548        C902   1.479       .  S
C549        C822   1.478       .  S
C550        C954   1.490       .  S
O561       Mg563   2.159       .  S
O561       Mg569   2.184       .  S
O561        C596   1.237       .  S
C562        H601   1.081       .  S
C562        O575   1.236       .  S
C562        O599   1.271       .  A
Mg563       O592   2.144       .  S
Mg563       O607   2.328       .  S
Mg563       O603   2.316       .  S
Mg563       O574   2.309       .  S
O564       Mg606   2.148       .  S
O564       Mg589   2.124       .  S
O564        C585   1.232       .  S
O565        C596   1.271       .  A
O565       Mg589   2.294       .  S
C566        C809   1.469       .  S
C566        O568   1.267       .  A
C566        O580   1.272       .  A
O567        C595   1.266       .  A
O567       Mg569   2.289       .  S
O568       Mg600   2.249       .  S
Mg569       O575   2.172       .  S
Mg569       O583   2.292       .  S
Mg569       O571   2.315       .  S
C570        C918   1.481       .  S
C570        O608   1.273       .  A
C570        O576   1.278       .  A
O571        C578   1.276       .  A
H572        C585   1.081       .  S
C573        H598   1.081       .  S
C573        O587   1.238       .  S
C573        O588   1.271       .  A
O574        C597   1.272       .  A
O575       Mg589   2.162       .  S
O576       Mg606   2.316       .  S
C577        C806   1.471       .  S
C577        O590   1.274       .  A
C577        O582   1.271       .  A
C578        C854   1.470       .  S
C578        O605   1.265       .  A
Mg579       O586   2.163       .  S
Mg579       O587   2.177       .  S
Mg579       O580   2.274       .  S
Mg579       O581   2.285       .  S
Mg579       O608   2.276       .  S
O581        C585   1.265       .  A
O582       Mg589   2.285       .  S
O583        C602   1.277       .  A
O584        C604   1.272       .  A
O584       Mg600   2.290       .  S
O586       Mg600   2.160       .  S
O586        C597   1.236       .  S
O587       Mg606   2.138       .  S
O588       Mg600   2.294       .  S
Mg589       O605   2.227       .  S
O590       Mg606   2.279       .  S
H591        C596   1.081       .  S
O592       Mg600   2.135       .  S
O592        C595   1.233       .  S
H593        C595   1.081       .  S
H594        C597   1.081       .  S
O599       Mg606   2.308       .  S
C602        C814   1.486       .  S
C602        O607   1.281       .  A
O603        C604   1.278       .  A
C604        C886   1.480       .  S
N609        C614   1.353       .  A
N609        C613   1.351       .  A
N609        H641   1.042       .  S
N610        C617   1.347   1_565  A
N610        C618   1.348       .  A
N611        C616   1.352       .  A
N611        C615   1.352       .  A
N611        H642   1.042       .  S
N612        C619   1.353   1_565  A
N612        C620   1.352       .  A
C613        C621   1.385       .  A
C613        C629   1.410       .  A
C614        C630   1.418       .  A
C614        C622   1.389       .  A
C615        C623   1.385       .  A
C615        C632   1.409       .  A
C616        C631   1.419       .  A
C616        C624   1.389       .  A
C617        C629   1.402       .  A
C617        C625   1.386       .  A
C618        C632   1.403       .  A
C618        C626   1.386       .  A
C619        C627   1.386       .  A
C619        C630   1.414       .  A
C620        C628   1.387       .  A
C620        C631   1.414       .  A
C621        C622   1.377       .  A
C621        H633   1.082       .  S
C622        H634   1.081       .  S
C623        C624   1.378       .  A
C623        H635   1.082       .  S
C624        H636   1.081       .  S
C625        C626   1.372   1_545  A
C625        H637   1.082       .  S
C626        H638   1.082       .  S
C627        C628   1.373   1_545  A
C627        H639   1.082       .  S
C628        H640   1.082       .  S
C629        C957   1.474       .  S
C630        C802   1.498       .  S
C631        C874   1.495       .  S
C632        C810   1.474       .  S
O643       Mg645   2.174       .  S
O643       Mg651   2.162       .  S
O643        C678   1.236       .  S
C644        H683   1.081       .  S
C644        O657   1.238       .  S
C644        O681   1.272       .  A
Mg645       O674   2.145       .  S
Mg645       O689   2.314       .  S
Mg645       O685   2.284       .  S
Mg645       O656   2.311       .  S
O646       Mg688   2.164       .  S
O646       Mg671   2.142       .  S
O646        C667   1.234       .  S
O647        C678   1.273       .  A
O647       Mg671   2.314       .  S
C648        C974   1.475       .  S
C648        O650   1.273       .  A
C648        O662   1.272       .  A
O649        C677   1.272       .  A
O649       Mg651   2.322       .  S
O650       Mg682   2.266       .  S
Mg651       O657   2.153       .  S
Mg651       O665   2.270       .  S
Mg651       O653   2.352       .  S
C652        C801   1.473       .  S
C652        O690   1.272       .  A
C652        O658   1.276       .  A
O653        C660   1.280       .  A
H654        C667   1.081       .  S
C655        H680   1.081       .  S
C655        O669   1.235       .  S
C655        O670   1.267       .  A
O656        C679   1.271       .  A
O657       Mg671   2.153       .  S
O658       Mg688   2.308       .  S
C659        C858   1.466       .  S
C659        O672   1.268       .  A
C659        O664   1.276       .  A
C660        C793   1.493       .  S
C660        O687   1.271       .  A
Mg661       O668   2.143       .  S
Mg661       O669   2.160       .  S
Mg661       O662   2.294       .  S
Mg661       O663   2.281       .  S
Mg661       O690   2.269       .  S
O663        C667   1.266       .  A
O664       Mg671   2.298       .  S
O665        C684   1.273       .  A
O666        C686   1.268       .  A
O666       Mg682   2.283       .  S
O668       Mg682   2.147       .  S
O668        C679   1.235       .  S
O669       Mg688   2.111       .  S
O670       Mg682   2.281       .  S
Mg671       O687   2.274       .  S
O672       Mg688   2.232       .  S
H673        C678   1.081       .  S
O674       Mg682   2.179       .  S
O674        C677   1.235       .  S
H675        C677   1.081       .  S
H676        C679   1.081       .  S
O681       Mg688   2.301       .  S
C684        C850   1.481       .  S
C684        O689   1.275       .  A
O685        C686   1.272       .  A
C686        C797   1.470       .  S
N691        C696   1.357       .  A
N691        C695   1.355   1_455  A
N691        H723   1.041       .  S
N692        C699   1.356       .  A
N692        C700   1.357       .  A
N693        C698   1.356       .  A
N693        C697   1.352   1_455  A
N693        H724   1.041       .  S
N694        C701   1.348       .  A
N694        C702   1.350       .  A
C695        C703   1.387       .  A
C695        C711   1.421       .  A
C696        C712   1.420       .  A
C696        C704   1.387       .  A
C697        C705   1.387       .  A
C697        C714   1.413       .  A
C698        C713   1.416       .  A
C698        C706   1.387       .  A
C699        C711   1.420       .  A
C699        C707   1.386       .  A
C700        C714   1.422       .  A
C700        C708   1.386       .  A
C701        C709   1.390       .  A
C701        C712   1.411       .  A
C702        C710   1.383       .  A
C702        C713   1.408       .  A
C703        C704   1.381   1_655  A
C703        H715   1.082       .  S
C704        H716   1.082       .  S
C705        C706   1.376   1_655  A
C705        H717   1.082       .  S
C706        H718   1.082       .  S
C707        C708   1.374       .  A
C707        H719   1.082       .  S
C708        H720   1.081       .  S
C709        C710   1.367       .  A
C709        H721   1.079       .  S
C710        H722   1.082       .  S
C711        C934   1.504       .  S
C712        C798   1.487       .  S
C713        C870   1.494       .  S
C714        C834   1.496       .  S
N725        C730   1.352       .  A
N725        C729   1.356       .  A
N725        H757   1.037       .  S
N726        C733   1.355       .  A
N726        C734   1.354   1_554  A
N727        C732   1.360       .  A
N727        C731   1.358       .  A
N727        H758   1.036       .  S
N728        C735   1.354   1_556  A
N728        C736   1.355       .  A
C729        C737   1.386       .  A
C729        C745   1.414       .  A
C730        C746   1.418       .  A
C730        C738   1.389       .  A
C731        C739   1.390       .  A
C731        C748   1.430       .  A
C732        C747   1.427       .  A
C732        C740   1.385       .  A
C733        C745   1.416       .  A
C733        C741   1.385       .  A
C734        C748   1.422       .  A
C734        C742   1.389       .  A
C735        C743   1.384   1_554  A
C735        C746   1.413       .  A
C736        C744   1.389       .  A
C736        C747   1.420       .  A
C737        C738   1.374       .  A
C737        H749   1.082       .  S
C738        H750   1.082       .  S
C739        C740   1.380       .  A
C739        H751   1.082       .  S
C740        H752   1.082       .  S
C741        C742   1.370   1_554  A
C741        H753   1.082       .  S
C742        H754   1.081       .  S
C743        C744   1.369       .  A
C743        H755   1.082   1_556  S
C744        H756   1.082       .  S
C745        C818   1.491       .  S
C746        C949   1.485       .  S
C747        C794   1.504       .  S
C748        C930   1.498       .  S
N759        C764   1.352   1_554  A
N759        C763   1.355       .  A
N759        H791   1.040       .  S
N760        C767   1.349       .  A
N760        C768   1.352       .  A
N761        C766   1.353   1_554  A
N761        C765   1.352       .  A
N761        H792   1.038       .  S
N762        C769   1.354       .  A
N762        C770   1.353       .  A
C763        C771   1.387       .  A
C763        C779   1.416       .  A
C764        C780   1.413       .  A
C764        C772   1.386       .  A
C765        C773   1.387       .  A
C765        C782   1.414       .  A
C766        C781   1.414       .  A
C766        C774   1.388       .  A
C767        C779   1.409       .  A
C767        C775   1.385       .  A
C768        C782   1.414       .  A
C768        C776   1.387       .  A
C769        C777   1.387       .  A
C769        C780   1.418       .  A
C770        C778   1.385       .  A
C770        C781   1.417       .  A
C771        C772   1.376   1_554  A
C771        H783   1.082       .  S
C772        H784   1.082       .  S
C773        C774   1.376   1_554  A
C773        H785   1.082       .  S
C774        H786   1.082       .  S
C775        C776   1.372       .  A
C775        H787   1.082       .  S
C776        H788   1.082       .  S
C777        C778   1.377       .  A
C777        H789   1.082       .  S
C778        H790   1.082       .  S
C779        C805   1.488       .  S
C780        C865   1.494       .  S
C781        C830   1.487       .  S
C782        C898   1.492       .  S
C793        C794   1.347       .  D
C793        H795   1.087       .  S
C794        H796   1.087       .  S
C797        C798   1.343       .  D
C797        H799   1.087       .  S
C798        H800   1.087       .  S
C801        C802   1.346       .  D
C801        H803   1.085       .  S
C802        H804   1.088       .  S
C805        C806   1.341       .  D
C805        H807   1.087       .  S
C806        H808   1.087       .  S
C809        C810   1.340       .  D
C809        H811   1.087       .  S
C810        H812   1.087       .  S
C813        C814   1.347       .  D
C813        H815   1.086       .  S
C814        H816   1.087       .  S
C817        C818   1.345       .  D
C817        H819   1.087       .  S
C818        H820   1.087       .  S
C821        C822   1.344       .  D
C821        H823   1.087       .  S
C822        H824   1.087       .  S
C825        C826   1.345       .  D
C825        H827   1.086       .  S
C826        H828   1.087       .  S
C829        C830   1.346       .  D
C829        H831   1.087       .  S
C830        H832   1.086       .  S
C833        C834   1.344       .  D
C833        H835   1.087       .  S
C834        H836   1.087       .  S
C837        C838   1.350       .  D
C837        H839   1.085       .  S
C838        H840   1.087       .  S
C841        C842   1.344       .  D
C841        H843   1.087       .  S
C842        H844   1.087       .  S
C845        C846   1.346       .  D
C845        H847   1.088       .  S
C846        H848   1.085       .  S
C849        C850   1.344       .  D
C849        H851   1.087       .  S
C850        H852   1.087       .  S
C853        C854   1.342       .  D
C853        H855   1.086       .  S
C854        H856   1.088       .  S
C857        C858   1.339       .  D
C857        H859   1.087       .  S
C858        H860   1.087       .  S
C861        C862   1.343       .  D
C861        H863   1.087       .  S
C862        H864   1.087       .  S
C865        C866   1.343       .  D
C865        H867   1.087       .  S
C866        H868   1.087       .  S
C869        C870   1.351       .  D
C869        H871   1.087       .  S
C870        H872   1.087       .  S
C873        C874   1.345       .  D
C873        H875   1.085       .  S
C874        H876   1.087       .  S
C877        C878   1.352       .  D
C877        H879   1.086       .  S
C878        H880   1.086       .  S
C881        C882   1.347       .  D
C881        H883   1.087       .  S
C882        H884   1.087       .  S
C885        C886   1.341       .  D
C885        H887   1.087       .  S
C886        H888   1.087       .  S
C889        C890   1.344       .  D
C889        H891   1.087       .  S
C890        H892   1.087       .  S
C893        C894   1.344       .  D
C893        H895   1.087       .  S
C894        H896   1.087       .  S
C897        C898   1.344       .  D
C897        H899   1.086       .  S
C898        H900   1.087       .  S
C901        C902   1.336       .  D
C901        H903   1.087       .  S
C902        H904   1.087       .  S
C905        C906   1.346       .  D
C905        H907   1.085       .  S
C906        H908   1.087       .  S
C909        C910   1.344       .  D
C909        H911   1.087       .  S
C910        H912   1.086       .  S
C913        C914   1.342       .  D
C913        H915   1.086       .  S
C914        H916   1.087       .  S
C917        C918   1.345       .  D
C917        H919   1.086       .  S
C918        H920   1.087       .  S
C921        C922   1.340       .  D
C921        H923   1.087       .  S
C922        H924   1.087       .  S
C925        C926   1.349       .  D
C925        H927   1.087       .  S
C926        H928   1.087       .  S
C929        C930   1.346       .  D
C929        H931   1.087       .  S
C930        H932   1.087       .  S
C933        C934   1.349       .  D
C933        H935   1.087       .  S
C934        H936   1.086       .  S
C937        C938   1.347       .  D
C937        H939   1.088       .  S
C938        H940   1.084       .  S
C941        C942   1.350       .  D
C941        H943   1.084       .  S
C942        H944   1.087       .  S
C945        C946   1.347       .  D
C945        H947   1.087       .  S
C946        H948   1.086       .  S
C949        C950   1.344       .  D
C949        H951   1.086       .  S
C950        H952   1.087       .  S
C953        C954   1.345       .  D
C953        H955   1.087       .  S
C954        H956   1.086       .  S
C957        C958   1.340       .  D
C957        H959   1.087       .  S
C958        H960   1.087       .  S
C961        C962   1.343       .  D
C961        H963   1.087       .  S
C962        H964   1.087       .  S
C965        C966   1.346       .  D
C965        H967   1.087       .  S
C966        H968   1.087       .  S
C969        C970   1.347       .  D
C969        H971   1.087       .  S
C970        H972   1.087       .  S
C973        C974   1.342       .  D
C973        H975   1.087       .  S
C974        H976   1.087       .  S
C977        C978   1.342       .  D
C977        H979   1.087       .  S
C978        H980   1.087       .  S
C981        C982   1.347       .  D
C981        H983   1.087       .  S
C982        H984   1.087       .  S
