geometry optimzed in LAMMPS
_audit_creation_date              2020-12-01 
_audit_creation_method            'lammps2cif' 
_symmetry_space_group_name_H-M    'P1' 
_symmetry_Int_Tables_number       1 
_symmetry_cell_setting            triclinic 
loop_ 
_symmetry_equiv_pos_as_xyz 
  x,y,z 
_cell_length_a                    34.56933477 
_cell_length_b                    33.38255304166554 
_cell_length_c                    64.06921577863022 
_cell_angle_alpha                 90.89901400284263 
_cell_angle_beta                  89.93520220036935 
_cell_angle_gamma                 89.23107171446628 
loop_ 
_atom_site_label 
_atom_site_type_symbol 
_atom_site_fract_x 
_atom_site_fract_y 
_atom_site_fract_z 
_atom_site_charge 
N1          N  0.06639918  0.98467027  0.50108157    -0.37300
N2          N  0.50726751  0.98865632  0.53306610    -0.57900
N3          N  0.44879393  0.47776846  0.50254435    -0.37300
N4          N  0.50795727  0.47624653  0.46900012    -0.57900
C5          C  0.08568556  0.00182345  0.51721180     0.26300
C6          C  0.08621044  0.49258660  0.48344395     0.26300
C7          C  0.42769056  0.99318874  0.51872647     0.26200
C8          C  0.42819001  0.48365409  0.48496218     0.26200
C9          C  0.03919577  0.98510817  0.54491432     0.34900
C10         C  0.47687122  0.98197239  0.54568011     0.34900
C11         C  0.03991408  0.46482022  0.45798616     0.34900
C12         C  0.47698315  0.46105241  0.45881381     0.34900
C13         C  0.11790892  0.02132718  0.50970418    -0.22600
C14         C  0.11835204  0.51527799  0.48836961    -0.22600
C15         C  0.39348043  0.00959145  0.51118330    -0.22600
C16         C  0.39356591  0.50301700  0.48988538    -0.22600
C17         C  0.02924445  0.97500551  0.56511089    -0.23700
C18         C  0.48959056  0.97283943  0.56557634    -0.23700
C19         C  0.02911045  0.44233757  0.44062248    -0.23700
C20         C  0.48923891  0.44008009  0.44111281    -0.23700
C21         C  0.07582768  0.99810988  0.53853766    -0.19000
C22         C  0.07828831  0.47556009  0.46354855    -0.19000
C23         C  0.43793374  0.46741984  0.46511962    -0.19000
C24         C  0.43836224  0.99102144  0.54006184    -0.19000
H25         H  0.13929318  0.03755714  0.51865710     0.13900
H26         H  0.14021516  0.52570371  0.47771464     0.13900
H27         H  0.37056574  0.02432337  0.52002056     0.13900
H28         H  0.37062589  0.51118169  0.47921628     0.13900
H29         H  0.04842683  0.97158249  0.57832390     0.12200
H30         H  0.47205310  0.96731192  0.57920900     0.12200
H31         H  0.04784203  0.42860906  0.42893641     0.12200
H32         H  0.47139686  0.42452532  0.42982408     0.12200
H33         H  0.04373793  0.96455652  0.50225384     0.25400
H34         H  0.47365448  0.45988988  0.50350464     0.25400
N35         N  0.06507845  0.22819295  0.49475849    -0.37300
N36         N  0.50570748  0.23167106  0.46262156    -0.57900
N37         N  0.44779051  0.21900747  0.49259172    -0.37300
N38         N  0.50729381  0.21745226  0.52609640    -0.57900
C39         C  0.08385251  0.24673994  0.47923206     0.26300
C40         C  0.08541403  0.23470682  0.51246543     0.26300
C41         C  0.42634923  0.23433018  0.47683578     0.26200
C42         C  0.42735536  0.22477659  0.51031215     0.26200
C43         C  0.03768704  0.23135295  0.45072288     0.34900
C44         C  0.47569472  0.22600891  0.44956460     0.34900
C45         C  0.03905070  0.20622861  0.53707149     0.34900
C46         C  0.47634362  0.20218870  0.53596158     0.34900
C47         C  0.11635692  0.26557137  0.48719469    -0.22600
C48         C  0.11750011  0.25764104  0.50820172    -0.22600
C49         C  0.39199246  0.25023945  0.48474286    -0.22600
C50         C  0.39247006  0.24380678  0.50589068    -0.22600
C51         C  0.02822329  0.22436745  0.42995397    -0.23700
C52         C  0.48874215  0.22077703  0.42923395    -0.23700
C53         C  0.02817590  0.18390933  0.55410103    -0.23700
C54         C  0.48838749  0.18143285  0.55342698    -0.23700
C55         C  0.07367406  0.24468169  0.45791617    -0.19000
C56         C  0.07733673  0.21715246  0.53185303    -0.19000
C57         C  0.43744294  0.20870492  0.52979204    -0.19000
C58         C  0.43705234  0.23325050  0.45553567    -0.19000
H59         H  0.13752799  0.28250583  0.47869729     0.13900
H60         H  0.13958180  0.26725667  0.51907381     0.13900
H61         H  0.36883974  0.26472621  0.47623887     0.13900
H62         H  0.36958884  0.25180525  0.51678879     0.13900
H63         H  0.04752032  0.22413399  0.41663127     0.12200
H64         H  0.47145882  0.21723587  0.41526653     0.12200
H65         H  0.04683095  0.17057498  0.56570386     0.12200
H66         H  0.47044431  0.16597861  0.56447461     0.12200
H67         H  0.04242190  0.20818779  0.49294733     0.25400
H68         H  0.47278479  0.20135143  0.49123895     0.25400
O69         O  0.33641286  0.33916809  0.39298414    -0.80900
O70         O  0.17988292  0.33050075  0.35726585    -0.80900
O71         O  0.21141516  0.30630703  0.39975141    -0.80900
O72         O  0.28417385  0.35563629  0.32772512    -0.80800
O73         O  0.16881947  0.35399534  0.39500812    -0.81000
O74         O  0.32248106  0.33334568  0.35207528    -0.80900
O75         O  0.21596684  0.33150149  0.33014610    -0.80900
O76         O  0.29027320  0.29813227  0.40116121    -0.80900
C77         C  0.32572172  0.30662789  0.40076469     1.08800
C78         C  0.18751688  0.31740284  0.33903789     1.08700
C79         C  0.17737410  0.31966470  0.40181302     1.08800
C80         C  0.30918036  0.33083335  0.33375972     1.08700
O81         O  0.31095031  0.42064406  0.35133332    -0.80900
O82         O  0.20911405  0.42716839  0.39161528    -0.80900
O83         O  0.29570218  0.37768479  0.41941795    -0.80900
O84         O  0.19829948  0.40890353  0.33933268    -0.80900
O85         O  0.15305742  0.40821752  0.36361103    -0.80900
O86         O  0.30915822  0.41999935  0.39456350    -0.80900
O87         O  0.25163341  0.42546073  0.34046574    -0.80800
O88         O  0.21747152  0.38644122  0.41800384    -0.80900
Co89       Co  0.31349386  0.37749373  0.37296701     1.51500
Co90       Co  0.19937509  0.38064794  0.37301490     1.51700
Co91       Co  0.25346965  0.34278653  0.40742488     1.51600
Co92       Co  0.24226713  0.37110090  0.34667627     1.51500
O93         O  0.25514766  0.36122182  0.37708562    -1.42800
C94         C  0.28519869  0.43788159  0.34062065     1.08800
C95         C  0.20452742  0.41936755  0.41078667     1.08800
C96         C  0.31258950  0.40910344  0.41327697     1.08800
C97         C  0.16618578  0.42225045  0.34679301     1.08800
O98         O  0.31064126  0.17215340  0.60121730    -0.80900
O99         O  0.15566300  0.15903814  0.63725063    -0.80900
O100        O  0.21720550  0.13278735  0.57957508    -0.80900
O101        O  0.27913332  0.14580367  0.66751234    -0.80800
O102        O  0.20513057  0.17689229  0.60507179    -0.81000
O103        O  0.29978022  0.18252981  0.64253346    -0.80900
O104        O  0.21224660  0.17330637  0.65107739    -0.80900
O105        O  0.29651043  0.12546258  0.57776558    -0.80900
C106        C  0.31359055  0.15770698  0.58294494     1.08800
C107        C  0.17592746  0.18146062  0.64897654     1.08700
C108        C  0.20191515  0.16578398  0.58605416     1.08800
C109        C  0.29391925  0.17791158  0.66162450     1.08700
O110        O  0.32478528  0.09744028  0.64911386    -0.80900
O111        O  0.17001614  0.10259807  0.60596846    -0.80900
O112        O  0.29357829  0.05096975  0.59922010    -0.80900
O113        O  0.21593627  0.10636650  0.67510763    -0.80900
O114        O  0.18961022  0.08591494  0.64573993    -0.80900
O115        O  0.33961885  0.09330347  0.60701124    -0.80900
O116        O  0.26880400  0.06702555  0.65039364    -0.80800
O117        O  0.21391835  0.05634491  0.60064045    -0.80900
Co118      Co  0.31475091  0.13595588  0.62492327     1.51500
Co119      Co  0.20180005  0.13395872  0.62603742     1.51700
Co120      Co  0.25519960  0.09255528  0.59128905     1.51600
Co121      Co  0.24051456  0.11803914  0.64941778     1.51500
O122        O  0.25833794  0.12029229  0.61983664    -1.42800
C123        C  0.30426778  0.06790497  0.65491383     1.08800
C124        C  0.17944493  0.06853278  0.59863724     1.08800
C125        C  0.32893935  0.06014553  0.59917190     1.08800
C126        C  0.19368642  0.08266801  0.66566925     1.08800
N127        N  0.18172757  0.51586379  0.00255814    -0.37300
N128        N  0.23912931  0.50339324  0.03412140    -0.57900
N129        N  0.29805704  0.49956727  0.00321912    -0.37300
N130        N  0.24121396  0.50991160  0.96994940    -0.57900
C131        C  0.15993004  0.50100503  0.01817212     0.26300
C132        C  0.16144696  0.51176686  0.98469480     0.26300
C133        C  0.31656594  0.48401906  0.01991333     0.26200
C134        C  0.31717241  0.48662171  0.98594997     0.26200
C135        C  0.20781044  0.51162387  0.04596955     0.34900
C136        C  0.27011219  0.50725797  0.04664868     0.34900
C137        C  0.21237214  0.52898892  0.95959432     0.34900
C138        C  0.27457938  0.51744715  0.95968301     0.34900
C139        C  0.12551597  0.48674664  0.00998798    -0.22600
C140        C  0.12621577  0.49422338  0.98885978    -0.22600
C141        C  0.34734166  0.46007972  0.01316466    -0.22600
C142        C  0.34777538  0.46181725  0.99167323    -0.22600
C143        C  0.21885668  0.52177587  0.06613883    -0.23700
C144        C  0.25856982  0.51933615  0.06653408    -0.23700
C145        C  0.22735804  0.04852990  0.94254138    -0.23700
C146        C  0.26677766  0.04128677  0.94260538    -0.23700
C147        C  0.17005171  0.50223884  0.03960364    -0.19000
C148        C  0.17274761  0.52749513  0.96530265    -0.19000
C149        C  0.31155340  0.50268304  0.96585897    -0.19000
C150        C  0.30725246  0.49314731  0.04098293    -0.19000
H151        H  0.10199727  0.47314254  0.01833795     0.13900
H152        H  0.10341859  0.48767226  0.97780464     0.13900
H153        H  0.36782556  0.44380076  0.02270799     0.13900
H154        H  0.36907085  0.44779039  0.98143334     0.13900
H155        H  0.20014604  0.52821403  0.07936325     0.12200
H156        H  0.27663553  0.52361238  0.08015085     0.12200
H157        H  0.21170702  0.06652350  0.93137983     0.12200
H158        H  0.28725253  0.05297463  0.93155646     0.12200
H159        H  0.20713260  0.53209597  0.00412019     0.25400
H160        H  0.27712293  0.52233587  0.00366429     0.25400
N161        N  0.29913719  0.28279569  0.98748561    -0.37300
N162        N  0.24353729  0.28238594  0.02194895    -0.57900
N163        N  0.18466418  0.26365956  0.99186453    -0.37300
N164        N  0.24027842  0.26042217  0.95811145    -0.57900
C165        C  0.32189967  0.27828683  0.00446529     0.26300
C166        C  0.31993142  0.26962215  0.97076513     0.26300
C167        C  0.16549380  0.25963266  0.01008578     0.26200
C168        C  0.16503161  0.24272538  0.97718361     0.26200
C169        C  0.27452814  0.29803596  0.03177514     0.34900
C170        C  0.21212144  0.29267246  0.03353394     0.34900
C171        C  0.26800224  0.27136877  0.94458977     0.34900
C172        C  0.20730935  0.25710892  0.94704417     0.34900
C173        C  0.35719510  0.26150121  0.99857983    -0.22600
C174        C  0.35583990  0.25562225  0.97734217    -0.22600
C175        C  0.13355115  0.23566203  0.00710919    -0.22600
C176        C  0.13357265  0.22440599  0.98637930    -0.22600
C177        C  0.26293196  0.31789400  0.04993662    -0.23700
C178        C  0.22319974  0.31470602  0.05098476    -0.23700
C179        C  0.25240514  0.27565223  0.92479926    -0.23700
C180        C  0.21388787  0.26614749  0.92632119    -0.23700
C181        C  0.31304884  0.29272146  0.02475120    -0.19000
C182        C  0.30772638  0.27188140  0.94969896    -0.19000
C183        C  0.17214390  0.24381384  0.95543234    -0.19000
C184        C  0.17410106  0.28042905  0.02876335    -0.19000
H185        H  0.38152774  0.25453345  0.00856791     0.13900
H186        H  0.37884106  0.24254722  0.96789938     0.13900
H187        H  0.11221383  0.22763521  0.01863806     0.13900
H188        H  0.11201849  0.20600748  0.97880796     0.13900
H189        H  0.28112947  0.33315977  0.06116858     0.12200
H190        H  0.20471257  0.32680531  0.06325152     0.12200
H191        H  0.26742261  0.28354313  0.91064754     0.12200
H192        H  0.19321755  0.26567607  0.91364769     0.12200
H193        H  0.27288553  0.29848139  0.98702026     0.25400
H194        H  0.20634840  0.28426452  0.98913724     0.25400
O195        O  0.01329937  0.09768198  0.92701004    -0.80900
O196        O  0.03331339  0.16852857  0.84597113    -0.80900
O197        O  0.01251420  0.02865770  0.86799643    -0.80900
O198        O  0.04013113  0.17665334  0.89092653    -0.80800
O199        O  0.03445849  0.08185086  0.85115149    -0.81000
O200        O  0.01271626  0.17943123  0.92181889    -0.80900
O201        O  0.01025389  0.22464708  0.86032679    -0.80900
O202        O  0.04001292  0.08208236  0.89686374    -0.80900
C203        C  0.04207400  0.08486627  0.91655077     1.08800
C204        C  0.02967492  0.20685761  0.84593397     1.08700
C205        C  0.03163614  0.04354764  0.85294630     1.08800
C206        C  0.04187342  0.18433967  0.91019988     1.08700
O207        O  0.43131062  0.17661996  0.91467825    -0.80900
O208        O  0.46522706  0.09393912  0.83950011    -0.80900
O209        O  0.46450252  0.04528756  0.90514745    -0.80900
O210        O  0.43874061  0.19059289  0.86351489    -0.80900
O211        O  0.46217053  0.15666148  0.83768326    -0.80900
O212        O  0.43234282  0.09649705  0.91978852    -0.80900
O213        O  0.46625660  0.22086162  0.89813703    -0.80800
O214        O  0.44124507  0.06369269  0.86603966    -0.80900
Co215      Co  0.47248219  0.13728665  0.91906649     1.51500
Co216      Co  0.49638204  0.12748854  0.85747482     1.51700
Co217      Co  0.49005389  0.07536398  0.88160506     1.51600
Co218      Co  0.48939060  0.18199487  0.87705254     1.51500
O219        O  0.47335783  0.13043437  0.88768765    -1.42800
C220        C  0.43558025  0.21149861  0.90779754     1.08800
C221        C  0.44225971  0.06879526  0.84654743     1.08800
C222        C  0.43740753  0.05922948  0.91692678     1.08800
C223        C  0.43845569  0.18282092  0.84434256     1.08800
N224        N  0.12199398  0.37921237  0.71404019    -0.37300
N225        N  0.10277717  0.43825758  0.74656887    -0.57900
N226        N  0.07782683  0.37389749  0.77202086    -0.37300
N227        N  0.09349116  0.31439246  0.73968101    -0.57900
C228        C  0.12606404  0.41371468  0.70342819     0.26300
C229        C  0.12116159  0.34868344  0.69984989     0.26300
C230        C  0.06160549  0.40603010  0.78182440     0.26200
C231        C  0.05822215  0.34158913  0.77829957     0.26200
C232        C  0.12335633  0.46163303  0.73377870     0.34900
C233        C  0.09928088  0.45834841  0.76500203     0.34900
C234        C  0.11196865  0.29280375  0.72462444     0.34900
C235        C  0.08989686  0.29016295  0.75630950     0.34900
C236        C  0.12800626  0.40487949  0.68219903    -0.22600
C237        C  0.12457537  0.36399632  0.67994902    -0.22600
C238        C  0.03049077  0.39420312  0.79381824    -0.22600
C239        C  0.02845040  0.35332093  0.79164979    -0.22600
C240        C  0.13233419  0.49726036  0.74407451    -0.23700
C241        C  0.11764689  0.49485193  0.76394646    -0.23700
C242        C  0.11965634  0.25436367  0.73161574    -0.23700
C243        C  0.10587947  0.25279756  0.75178257    -0.23700
C244        C  0.13165386  0.45225740  0.71256627    -0.19000
C245        C  0.12103386  0.30723253  0.70453777    -0.19000
C246        C  0.07093425  0.30181562  0.77504598    -0.19000
C247        C  0.07726653  0.44472401  0.78204304    -0.19000
H248        H  0.13232640  0.42544510  0.66956158     0.13900
H249        H  0.12555459  0.34735591  0.66531903     0.13900
H250        H  0.51218258  0.41292570  0.80373001     0.13900
H251        H  0.50851673  0.33412998  0.79968308     0.13900
H252        H  0.14749681  0.02267159  0.73800078     0.12200
H253        H  0.11977431  0.01769556  0.77603031     0.12200
H254        H  0.13421528  0.23016171  0.72320368     0.12200
H255        H  0.10748898  0.22715722  0.76187471     0.12200
H256        H  0.12459078  0.37618801  0.73008639     0.25400
H257        H  0.10455080  0.37313749  0.76446672     0.25400
N258        N  0.34672797  0.37721114  0.72273877    -0.37300
N259        N  0.36029012  0.31653686  0.75400362    -0.57900
N260        N  0.38417004  0.37749254  0.78339197    -0.37300
N261        N  0.37481885  0.43848962  0.75098585    -0.57900
C262        C  0.34259588  0.34343590  0.71101440     0.26300
C263        C  0.35095249  0.40798077  0.70940633     0.26300
C264        C  0.39722630  0.34441628  0.79328087     0.26200
C265        C  0.40127276  0.40940504  0.79243979     0.26200
C266        C  0.34111993  0.29410509  0.73979834     0.34900
C267        C  0.36318221  0.29422696  0.77133904     0.34900
C268        C  0.36050718  0.46211108  0.73574641     0.34900
C269        C  0.37722384  0.46194351  0.76829399     0.34900
C270        C  0.34362434  0.35302789  0.69002714    -0.22600
C271        C  0.34926924  0.39359868  0.68902731    -0.22600
C272        C  0.42308094  0.35550986  0.80881648    -0.22600
C273        C  0.42549269  0.39665063  0.80835384    -0.22600
C274        C  0.33208802  0.25727755  0.74814073    -0.23700
C275        C  0.34573857  0.25752411  0.76816333    -0.23700
C276        C  0.35447000  0.50077224  0.74327785    -0.23700
C277        C  0.36472474  0.50061709  0.76391806    -0.23700
C278        C  0.33541104  0.30471615  0.71877803    -0.19000
C279        C  0.35259493  0.44908794  0.71513039    -0.19000
C280        C  0.39307793  0.44974844  0.78759153    -0.19000
C281        C  0.38457290  0.30491992  0.78925390    -0.19000
H282        H  0.34004435  0.33314271  0.67670451     0.13900
H283        H  0.35103779  0.41069939  0.67485405     0.13900
H284        H  0.43822252  0.33611963  0.81955131     0.13900
H285        H  0.44281924  0.41507000  0.81867289     0.13900
H286        H  0.31798007  0.23229158  0.74055375     0.12200
H287        H  0.34378471  0.23305074  0.77897981     0.12200
H288        H  0.34297227  0.02623100  0.73495298     0.12200
H289        H  0.36292197  0.02615821  0.77450024     0.12200
H290        H  0.34203986  0.37973229  0.73864274     0.25400
H291        H  0.36156430  0.37900618  0.77285211     0.25400
N292        N  0.10129012  0.12068436  0.28940887    -0.37300
N293        N  0.08532785  0.17969126  0.25809536    -0.57900
N294        N  0.07755946  0.11805991  0.22650579    -0.37300
N295        N  0.09578162  0.05797222  0.25710351    -0.57900
C296        C  0.11501454  0.15423043  0.29888394     0.26300
C297        C  0.11705055  0.08889169  0.29922738     0.26300
C298        C  0.08051069  0.15122271  0.21476604     0.26200
C299        C  0.08704999  0.08629648  0.21411365     0.26200
C300        C  0.08397994  0.20281008  0.27552144     0.34900
C301        C  0.06815836  0.20103995  0.24294768     0.34900
C302        C  0.09662906  0.03501238  0.27431148     0.34900
C303        C  0.08617156  0.03362221  0.24084976     0.34900
C304        C  0.13943334  0.14362881  0.31504530    -0.22600
C305        C  0.14002625  0.10254810  0.31559948    -0.22600
C306        C  0.09228605  0.14038562  0.19473181    -0.22600
C307        C  0.09613839  0.09932984  0.19428859    -0.22600
C308        C  0.06525320  0.23879884  0.27164100    -0.23700
C309        C  0.05446284  0.23738784  0.25102310    -0.23700
C310        C  0.08790971  0.99573585  0.26885955    -0.23700
C311        C  0.08091400  0.99497225  0.24772519    -0.23700
C312        C  0.10483285  0.19403377  0.29372431    -0.19000
C313        C  0.10991560  0.04808386  0.29418940    -0.19000
C314        C  0.08444539  0.04571230  0.21977648    -0.19000
C315        C  0.07077117  0.19060150  0.22156251    -0.19000
H316        H  0.15490866  0.16325836  0.32560633     0.13900
H317        H  0.15584593  0.08519258  0.32692195     0.13900
H318        H  0.09732237  0.15990580  0.18171268     0.13900
H319        H  0.10445563  0.08106651  0.18086976     0.13900
H320        H  0.06093543  0.26379244  0.28239529     0.12200
H321        H  0.04000179  0.26124680  0.24271074     0.12200
H322        H  0.08752761  0.46997392  0.27889071     0.12200
H323        H  0.07366591  0.46875479  0.23847076     0.12200
H324        H  0.07983529  0.11925782  0.27805079     0.25400
H325        H  0.06520510  0.11676388  0.24130604     0.25400
N326        N  0.34132692  0.12352657  0.27473084    -0.37300
N327        N  0.34856552  0.05900463  0.24341802    -0.57900
N328        N  0.37420862  0.11640525  0.21288400    -0.37300
N329        N  0.36482716  0.18078414  0.24405462    -0.57900
C330        C  0.32488721  0.09349703  0.28523307     0.26300
C331        C  0.33344044  0.15765946  0.28562834     0.26300
C332        C  0.38552391  0.08175647  0.20322616     0.26200
C333        C  0.39319258  0.14648979  0.20348667     0.26200
C334        C  0.33795714  0.03696306  0.25990550     0.34900
C335        C  0.35716069  0.03269634  0.22780809     0.34900
C336        C  0.35488762  0.20702445  0.25942958     0.34900
C337        C  0.37318041  0.20293369  0.22727251     0.34900
C338        C  0.30681900  0.10864068  0.30311522    -0.22600
C339        C  0.31250913  0.14909056  0.30344747    -0.22600
C340        C  0.41111856  0.09014905  0.18723639    -0.22600
C341        C  0.41610145  0.13085371  0.18747799    -0.22600
C342        C  0.33958682  0.99648430  0.25466189    -0.23700
C343        C  0.35121973  0.99382885  0.23429393    -0.23700
C344        C  0.35662880  0.24595973  0.25232363    -0.23700
C345        C  0.36735482  0.24332225  0.23185777    -0.23700
C346        C  0.32647317  0.05254139  0.27963111    -0.19000
C347        C  0.34273206  0.19671492  0.27960680    -0.19000
C348        C  0.39020136  0.18780920  0.20869365    -0.19000
C349        C  0.37464547  0.04249094  0.20865982    -0.19000
H350        H  0.29073593  0.09233385  0.31465588     0.13900
H351        H  0.30143314  0.16993926  0.31518146     0.13900
H352        H  0.42557893  0.06903398  0.17676685     0.13900
H353        H  0.43503148  0.14697733  0.17720176     0.13900
H354        H  0.33357785  0.47122840  0.26447347     0.12200
H355        H  0.35626154  0.46622595  0.22554889     0.12200
H356        H  0.35034408  0.27353341  0.26083556     0.12200
H357        H  0.37123678  0.26852416  0.22168774     0.12200
H358        H  0.35940050  0.12032310  0.26187435     0.25400
H359        H  0.35277801  0.11972411  0.22419196     0.25400
O360        O  0.44520687  0.32108664  0.09564145    -0.80900
O361        O  0.04181073  0.31512321  0.14517800    -0.80900
O362        O  0.53349061  0.36743741  0.07774553    -0.80900
O363        O  0.46499746  0.34138428  0.16358090    -0.80800
O364        O  0.04493797  0.32021581  0.10093410    -0.81000
O365        O  0.45102873  0.30638530  0.13652521    -0.80900
O366        O  0.03280843  0.35347630  0.17309864    -0.80900
O367        O  0.45467182  0.37200118  0.07519493    -0.80900
C368        C  0.44001738  0.33794785  0.07838914     1.08800
C369        C  0.04328411  0.31996822  0.16512365     1.08700
C370        C  0.04868800  0.33371396  0.08262941     1.08800
C371        C  0.45144908  0.30981425  0.15596556     1.08700
O372        O  0.41873799  0.38951532  0.14574137    -0.80900
O373        O  0.07671184  0.39729267  0.10467013    -0.80900
O374        O  0.45305025  0.44383145  0.10003124    -0.80900
O375        O  0.01005541  0.42310178  0.15572639    -0.80900
O376        O  0.06726141  0.40225009  0.14664068    -0.80900
O377        O  0.40966598  0.39725235  0.10450121    -0.80900
O378        O  0.47459516  0.41386750  0.15725921    -0.80800
O379        O  0.53228034  0.44312813  0.10178943    -0.80900
Co380      Co  0.43561929  0.35430330  0.12074708     1.51500
Co381      Co  0.05138853  0.35949084  0.12393549     1.51700
Co382      Co  0.49368025  0.40522908  0.09086192     1.51600
Co383      Co  0.50703453  0.36741552  0.14738095     1.51500
O384        O  0.49120603  0.37653151  0.11909444    -1.42800
C385        C  0.43757281  0.41486270  0.15678916     1.08800
C386        C  0.06677239  0.43196197  0.09915490     1.08800
C387        C  0.41843065  0.43224597  0.09900248     1.08800
C388        C  0.04605659  0.42858430  0.15609796     1.08800
C389        C  0.36823116  0.99513935  0.17780422    -0.14100
C390        C  0.38897594  0.00870708  0.19534054     0.08100
C391        C  0.42378458  0.48976651  0.20066397    -0.14100
C392        C  0.43826677  0.45826272  0.18844114    -0.14100
C393        C  0.41835324  0.44498963  0.17052515     0.08100
C394        C  0.38284335  0.46324794  0.16541688    -0.14100
H395        H  0.34111552  0.00949678  0.17363080     0.12100
H396        H  0.43990540  0.49971331  0.21423969     0.12100
H397        H  0.46557620  0.44458848  0.19288592     0.12100
H398        H  0.36720643  0.45379456  0.15159617     0.12100
C399        C  0.39477550  0.22096613  0.17401157    -0.14100
C400        C  0.40798012  0.21722226  0.19457064     0.08100
C401        C  0.43631671  0.24345087  0.20219597    -0.14100
C402        C  0.44954756  0.27441023  0.18985677    -0.14100
C403        C  0.43658471  0.27799641  0.16923805     0.08100
C404        C  0.40946559  0.25075972  0.16130983    -0.14100
H405        H  0.37277704  0.20115939  0.16793316     0.12100
H406        H  0.44708695  0.24078216  0.21799530     0.12100
H407        H  0.47050773  0.29502779  0.19627913     0.12100
H408        H  0.39891179  0.25316565  0.14546265     0.12100
C409        C  0.03566103  0.49376551  0.17429125    -0.14100
C410        C  0.06060937  0.46112252  0.16982997     0.08100
C411        C  0.09471714  0.45680799  0.18157082    -0.14100
C412        C  0.10288434  0.48408156  0.19792816    -0.14100
C413        C  0.07699753  0.01586078  0.20269829     0.08100
C414        C  0.04367248  0.02062850  0.19049588    -0.14100
H415        H  0.00899177  0.99771411  0.16564642     0.12100
H416        H  0.11396481  0.43142577  0.17878307     0.12100
H417        H  0.12899907  0.48013248  0.20702380     0.12100
H418        H  0.02340124  0.04496720  0.19378181     0.12100
C419        C  0.04052625  0.21798557  0.18904374    -0.14100
C420        C  0.06600771  0.22273764  0.20592193     0.08100
C421        C  0.08627657  0.25881313  0.20822138    -0.14100
C422        C  0.07877637  0.29069089  0.19496149    -0.14100
C423        C  0.05277483  0.28605534  0.17843047     0.08100
C424        C  0.03492549  0.24905560  0.17500168    -0.14100
H425        H  0.02460670  0.19049227  0.18692212     0.12100
H426        H  0.10694102  0.26274494  0.22075803     0.12100
H427        H  0.09335536  0.31886525  0.19752266     0.06500
H428        H  0.51509162  0.24492898  0.16209752     0.12100
C429        C  0.06248249  0.98013842  0.83836793    -0.14100
C430        C  0.04680620  0.01852758  0.83555851     0.08100
C431        C  0.04251911  0.53310518  0.81517161    -0.14100
C432        C  0.05267733  0.50948744  0.79785989    -0.14100
C433        C  0.06890627  0.47127694  0.80051282     0.08100
C434        C  0.07424643  0.95702514  0.82096825    -0.14100
H435        H  0.06566858  0.96817484  0.85389217     0.12100
H436        H  0.02965924  0.56236612  0.81254910     0.12100
H437        H  0.04706023  0.52075672  0.78237989     0.12100
H438        H  0.08652915  0.92745107  0.82340321     0.12100
C439        C  0.07656756  0.28563492  0.81294518    -0.14100
C440        C  0.06529814  0.27367863  0.79264732     0.08100
C441        C  0.54477180  0.23801034  0.79005277    -0.14100
C442        C  0.53503594  0.21539063  0.80749866    -0.14100
C443        C  0.04452114  0.22873207  0.82783184     0.08100
C444        C  0.06554762  0.26387171  0.83039601    -0.14100
H445        H  0.09243576  0.31308335  0.81534099     0.12100
H446        H  0.53505364  0.22851359  0.77471114     0.12100
H447        H  0.51845737  0.18837848  0.80520601     0.12100
H448        H  0.07312342  0.27462797  0.84587001     0.12100
C449        C  0.43673093  0.04243245  0.81075142    -0.14100
C450        C  0.42323965  0.04205697  0.83148793     0.08100
C451        C  0.39836835  0.01160542  0.83770544    -0.14100
C452        C  0.38797129  0.48155507  0.82336049    -0.14100
C453        C  0.40330434  0.48123932  0.80300237     0.08100
C454        C  0.42799221  0.51170228  0.79694149    -0.14100
H455        H  0.45625326  0.06521232  0.80539536     0.12100
H456        H  0.38807985  0.01037625  0.85365194     0.12100
H457        H  0.36868394  0.45813988  0.82819727     0.12100
H458        H  0.44042098  0.51172235  0.78140466     0.12100
C459        C  0.42787643  0.20803764  0.80869327    -0.14100
C460        C  0.41733094  0.20898208  0.82985038     0.08100
C461        C  0.39408959  0.24092711  0.83750411    -0.14100
C462        C  0.38327858  0.27228947  0.82438784    -0.14100
C463        C  0.39593538  0.27226880  0.80357163     0.08100
C464        C  0.41796286  0.23971987  0.79581580    -0.14100
H465        H  0.44599644  0.18407338  0.80237008     0.12100
H466        H  0.38589562  0.24263770  0.85382405     0.12100
H467        H  0.36574769  0.29690273  0.83052800     0.12100
H468        H  0.42776095  0.23907365  0.77974498     0.12100
C469        C  0.11376515  0.31995793  0.03557964    -0.14100
C470        C  0.14108990  0.29187993  0.04263015     0.08100
C471        C  0.13554483  0.27406200  0.06208266    -0.14100
C472        C  0.10374994  0.28540786  0.07463190    -0.14100
C473        C  0.07712057  0.31486176  0.06791900     0.08100
C474        C  0.08224150  0.33136732  0.04804833    -0.14100
H475        H  0.11730567  0.33364625  0.02048615     0.12100
H476        H  0.15600590  0.25180013  0.06760738     0.12100
H477        H  0.10095725  0.27239055  0.08992351     0.12100
H478        H  0.06261979  0.35430070  0.04239099     0.12100
C479        C  0.35285887  0.28289760  0.05719819    -0.14100
C480        C  0.34601398  0.30334125  0.03857580     0.08100
C481        C  0.37222098  0.33255540  0.03226489    -0.14100
C482        C  0.40420374  0.34197069  0.04459773    -0.14100
C483        C  0.41079316  0.32230107  0.06353508     0.08100
C484        C  0.38502374  0.29222620  0.06956484    -0.14100
H485        H  0.33326094  0.25984890  0.06215409     0.12100
H486        H  0.36761558  0.34839384  0.01782676     0.12100
H487        H  0.42312971  0.36557498  0.03959566     0.12100
H488        H  0.38889283  0.27693284  0.08421155     0.12100
C489        C  0.07272914  0.23612794  0.93202186    -0.14100
C490        C  0.07664920  0.20187294  0.91927560     0.08100
C491        C  0.11309072  0.18347681  0.91664606    -0.14100
C492        C  0.14496001  0.19807598  0.92773833    -0.14100
C493        C  0.14057270  0.23154406  0.94116593     0.08100
C494        C  0.10456567  0.25123196  0.94262532    -0.14100
H495        H  0.04477229  0.25073611  0.93407799     0.12100
H496        H  0.11638673  0.15679072  0.90693001     0.12100
H497        H  0.17254146  0.18242722  0.92653466     0.12100
H498        H  0.10076237  0.27718250  0.95282358     0.12100
C499        C  0.37275053  0.28811510  0.93407443    -0.14100
C500        C  0.33750941  0.26729282  0.93287911     0.08100
C501        C  0.33392382  0.23630810  0.91800172    -0.14100
C502        C  0.36597729  0.22306142  0.90663817    -0.14100
C503        C  0.40258759  0.23900824  0.91072736     0.08100
C504        C  0.40554006  0.27341976  0.92336628    -0.14100
H505        H  0.37603708  0.31256128  0.94521973     0.12100
H506        H  0.30754339  0.21934597  0.91670934     0.12100
H507        H  0.36320805  0.19652141  0.89680807     0.12100
H508        H  0.43358263  0.28597956  0.92681944     0.12100
C509        C  0.15589126  0.45542508  0.06836794    -0.14100
C510        C  0.14322255  0.48699858  0.05576817     0.08100
C511        C  0.10589356  0.50321521  0.05888030    -0.14100
C512        C  0.08127900  0.48708107  0.07395194    -0.14100
C513        C  0.09391080  0.45481427  0.08620768     0.08100
C514        C  0.13180109  0.43988965  0.08351478    -0.14100
H515        H  0.18446422  0.44223996  0.06621963     0.12100
H516        H  0.09564772  0.52775401  0.04941564     0.12100
H517        H  0.05202820  0.49878447  0.07545956     0.12100
H518        H  0.14243147  0.41488372  0.09253870     0.12100
C519        C  0.32396083  0.45468297  0.07285794    -0.14100
C520        C  0.33491918  0.48229495  0.05776794     0.08100
C521        C  0.37238831  0.49804633  0.05837557    -0.14100
C522        C  0.39914274  0.48469436  0.07324209    -0.14100
C523        C  0.38865798  0.45542937  0.08767200     0.08100
C524        C  0.35032946  0.44179864  0.08778508    -0.14100
H525        H  0.29529085  0.44195856  0.07260827     0.12100
H526        H  0.38127445  0.51950770  0.04687114     0.12100
H527        H  0.42858265  0.49527802  0.07255633     0.12100
H528        H  0.34133130  0.41909057  0.09859766     0.12100
C529        C  0.10531246  0.04598266  0.91895539    -0.14100
C530        C  0.07764949  0.07236562  0.92795353     0.08100
C531        C  0.08316009  0.08560487  0.94867012    -0.14100
C532        C  0.11473431  0.07201489  0.96029074    -0.14100
C533        C  0.14162672  0.04447706  0.95165477     0.08100
C534        C  0.13691281  0.03197097  0.93074764    -0.14100
H535        H  0.10181330  0.03515905  0.90305845     0.12100
H536        H  0.06271861  0.10624921  0.95604204     0.12100
H537        H  0.11779694  0.58241919  0.97629874     0.12100
H538        H  0.15702785  0.01053481  0.92375457     0.12100
C539        C  0.37890903  0.02833243  0.96244109    -0.14100
C540        C  0.34693699  0.00995443  0.95292264     0.08100
C541        C  0.34889289  0.50090280  0.93136896    -0.14100
C542        C  0.38085428  0.51299149  0.91943294    -0.14100
C543        C  0.41152484  0.03349861  0.92900271     0.08100
C544        C  0.41075419  0.03963721  0.95069041    -0.14100
H545        H  0.37841025  0.03602609  0.97892866     0.12100
H546        H  0.32493134  0.48632297  0.92364213     0.12100
H547        H  0.38030441  0.50894406  0.90263147     0.12100
H548        H  0.43359841  0.05622461  0.95834555     0.12100
C549        C  0.14052329  0.03410354  0.67230834    -0.14100
C550        C  0.17728218  0.04897000  0.67704441     0.08100
C551        C  0.19939818  0.03084031  0.69275129    -0.14100
C552        C  0.18517652  0.49824584  0.70350909    -0.14100
C553        C  0.14779621  0.48437406  0.69947886     0.08100
C554        C  0.12550224  0.00247562  0.68379170    -0.14100
H555        H  0.12314151  0.04762880  0.66018464     0.12100
H556        H  0.22799870  0.04162828  0.69653955     0.12100
H557        H  0.20283453  0.48454898  0.71547491     0.12100
H558        H  0.09650972  0.99220700  0.68054599     0.12100
C559        C  0.10813980  0.24669027  0.68165389    -0.14100
C560        C  0.13296195  0.27764169  0.68797840     0.08100
C561        C  0.17031398  0.27892631  0.67945026    -0.14100
C562        C  0.18335169  0.24870863  0.66574881    -0.14100
C563        C  0.15929977  0.21663071  0.66023559     0.08100
C564        C  0.12116212  0.21646497  0.66779865    -0.14100
H565        H  0.07916431  0.24524464  0.68801851     0.12100
H566        H  0.18992034  0.30249534  0.68406929     0.12100
H567        H  0.21280642  0.24967728  0.66000834     0.12100
H568        H  0.10218740  0.19190174  0.66391417     0.12100
C569        C  0.35595763  0.03853775  0.67850910    -0.14100
C570        C  0.31943856  0.03621817  0.66891128     0.08100
C571        C  0.29489561  0.00470825  0.67437664    -0.14100
C572        C  0.30575974  0.97713168  0.68942198    -0.14100
C573        C  0.34198537  0.47936440  0.69909113     0.08100
C574        C  0.36721889  0.51017271  0.69343297    -0.14100
H575        H  0.37536838  0.06261533  0.67481868     0.12100
H576        H  0.26657878  0.00176752  0.66735821     0.12100
H577        H  0.28567110  0.45395322  0.69361834     0.12100
H578        H  0.39536035  0.51245355  0.70073104     0.12100
C579        C  0.34152123  0.22583908  0.67595059    -0.14100
C580        C  0.30437412  0.20957489  0.67658245     0.08100
C581        C  0.27711913  0.22481710  0.69096554    -0.14100
C582        C  0.28673725  0.25672435  0.70428325    -0.14100
C583        C  0.32415436  0.27258356  0.70385721     0.08100
C584        C  0.35160167  0.25658832  0.68980311    -0.14100
H585        H  0.36286239  0.21429499  0.66493427     0.12100
H586        H  0.24826388  0.21263193  0.69154932     0.12100
H587        H  0.26532441  0.26864858  0.71515172     0.12100
H588        H  0.38070895  0.26819347  0.68949164     0.12100
C589        C  0.17489443  0.48333217  0.32670491    -0.14100
C590        C  0.14900722  0.45681094  0.33600085     0.08100
C591        C  0.10919021  0.46246992  0.33299002    -0.14100
C592        C  0.09596587  0.49300127  0.31976281    -0.14100
C593        C  0.12254287  0.01726278  0.30925746     0.08100
C594        C  0.16207761  0.01192545  0.31282495    -0.14100
H595        H  0.20550681  0.98129119  0.32972817     0.12100
H596        H  0.08869704  0.44263706  0.34014143     0.12100
H597        H  0.06521918  0.49692915  0.31717289     0.12100
H598        H  0.18310123  0.03022887  0.30496958     0.12100
C599        C  0.13615394  0.26403536  0.33809408    -0.14100
C600        C  0.16381608  0.28718849  0.32786065     0.08100
C601        C  0.16908541  0.28161845  0.30620663    -0.14100
C602        C  0.14867313  0.25244580  0.29522495    -0.14100
C603        C  0.12240578  0.22799807  0.30554991     0.08100
C604        C  0.11566488  0.23448543  0.32700646    -0.14100
H605        H  0.13112222  0.26807402  0.35468203     0.12100
H606        H  0.18950994  0.29952706  0.29770449     0.12100
H607        H  0.15428733  0.24806698  0.27869404     0.12100
H608        H  0.09533606  0.21600253  0.33521742     0.12100
C609        C  0.27280878  0.47265810  0.30761914    -0.14100
C610        C  0.29470126  0.46932916  0.32604421     0.08100
C611        C  0.32663313  0.49384844  0.32930239    -0.14100
C612        C  0.33685075  0.02120200  0.31414973    -0.14100
C613        C  0.31506549  0.02416106  0.29574032     0.08100
C614        C  0.28248656  0.00049564  0.29275415    -0.14100
H615        H  0.24876182  0.45300860  0.30442849     0.12100
H616        H  0.34382878  0.49148485  0.34335823     0.12100
H617        H  0.36186997  0.03986778  0.31661847     0.12100
H618        H  0.26533116  0.00281705  0.27866620     0.12100
C619        C  0.29283113  0.28557608  0.30434151    -0.14100
C620        C  0.31918409  0.29672848  0.32001202     0.08100
C621        C  0.35255854  0.27320288  0.32322948    -0.14100
C622        C  0.36014150  0.23993955  0.31026703    -0.14100
C623        C  0.33398102  0.22974365  0.29439868     0.08100
C624        C  0.29992213  0.25204267  0.29183874    -0.14100
H625        H  0.26638764  0.30252804  0.30183848     0.12100
H626        H  0.37280198  0.28079127  0.33551334     0.12100
H627        H  0.38642000  0.22245536  0.31240446     0.12100
H628        H  0.27939665  0.24399779  0.27976101     0.12100
C629        C  0.14271927  0.18609788  0.53781109    -0.14100
C630        C  0.11080711  0.20777355  0.54591321     0.08100
C631        C  0.11167298  0.22027002  0.56698154    -0.14100
C632        C  0.14300896  0.20956908  0.57985918    -0.14100
C633        C  0.17412097  0.18626584  0.57187680     0.08100
C634        C  0.17390560  0.17563339  0.55054903    -0.14100
H635        H  0.14299674  0.17620126  0.52162532     0.12100
H636        H  0.08774043  0.23751722  0.57355971     0.12100
H637        H  0.14186932  0.21767501  0.59628309     0.12100
H638        H  0.19711071  0.15744656  0.54386804     0.12100
C639        C  0.37764657  0.16967185  0.53588095    -0.14100
C640        C  0.40515323  0.19679849  0.54349783     0.08100
C641        C  0.40043119  0.21377929  0.56347641    -0.14100
C642        C  0.36913400  0.20290772  0.57590022    -0.14100
C643        C  0.34210696  0.17482723  0.56852049     0.08100
C644        C  0.34642755  0.15879014  0.54825172    -0.14100
H645        H  0.38066857  0.15656962  0.52037528     0.12100
H646        H  0.42105914  0.23521663  0.56945566     0.12100
H647        H  0.36690475  0.21543063  0.59155510     0.12100
H648        H  0.32635827  0.13688435  0.54217423     0.12100
C649        C  0.08861216  0.29786759  0.43289858    -0.14100
C650        C  0.09966879  0.26213792  0.44252059     0.08100
C651        C  0.13501735  0.24351336  0.43753095    -0.14100
C652        C  0.15977546  0.26122916  0.42333168    -0.14100
C653        C  0.14926339  0.29772496  0.41410843     0.08100
C654        C  0.11320063  0.31551978  0.41871215    -0.14100
H655        H  0.06121344  0.31237350  0.43670154     0.12100
H656        H  0.14355767  0.21576282  0.44487319     0.12100
H657        H  0.18755351  0.24707171  0.42008900     0.12100
H658        H  0.10454083  0.34378226  0.41193918     0.12100
C659        C  0.41913264  0.28129948  0.42776894    -0.14100
C660        C  0.40931118  0.24786938  0.43951136     0.08100
C661        C  0.37262515  0.23082439  0.43679299    -0.14100
C662        C  0.34553895  0.24834503  0.42326868    -0.14100
C663        C  0.35512010  0.28273182  0.41208384     0.08100
C664        C  0.39269053  0.29811395  0.41404441    -0.14100
H665        H  0.44699779  0.29534048  0.42976022     0.12100
H666        H  0.36453436  0.20496234  0.44572206     0.12100
H667        H  0.31680193  0.23598990  0.42218021     0.12100
H668        H  0.40121158  0.32468288  0.40580730     0.12100
C669        C  0.13924931  0.99713462  0.55784314    -0.14100
C670        C  0.10222174  0.01377823  0.55487965     0.08100
C671        C  0.08980942  0.04606992  0.56756991    -0.14100
C672        C  0.11423335  0.06215166  0.58268174    -0.14100
C673        C  0.15181076  0.04651927  0.58532556     0.08100
C674        C  0.16392979  0.01340322  0.57299010    -0.14100
H675        H  0.14917973  0.47210348  0.54820001     0.12100
H676        H  0.06133022  0.05934625  0.56546599     0.12100
H677        H  0.10411308  0.08783471  0.59178244     0.12100
H678        H  0.19290278  0.50105774  0.57449768     0.12100
C679        C  0.42207826  0.03405310  0.57131622    -0.14100
C680        C  0.41068568  0.00440289  0.55687865     0.08100
C681        C  0.37294578  0.98932464  0.55827032    -0.14100
C682        C  0.34661265  0.00529838  0.57304975    -0.14100
C683        C  0.35782663  0.03614129  0.58693086     0.08100
C684        C  0.39631548  0.04918647  0.58629390    -0.14100
H685        H  0.45076711  0.04661904  0.57057281     0.12100
H686        H  0.36348848  0.46621907  0.54745073     0.12100
H687        H  0.31708936  0.99486790  0.57294367     0.12100
H688        H  0.40608161  0.07296999  0.59661705     0.12100
C689        C  0.14458779  0.44582722  0.45809136    -0.14100
C690        C  0.11226175  0.46565299  0.44958004     0.08100
C691        C  0.11334346  0.47557078  0.42827966    -0.14100
C692        C  0.14517035  0.46386985  0.41566852    -0.14100
C693        C  0.17669647  0.44249778  0.42421498     0.08100
C694        C  0.17635518  0.43493346  0.44572431    -0.14100
H695        H  0.14483077  0.43761260  0.47438009     0.12100
H696        H  0.08919382  0.99142227  0.42130666     0.12100
H697        H  0.14407447  0.46949004  0.39907659     0.12100
H698        H  0.19983188  0.41824671  0.45284326     0.12100
C699        C  0.37896769  0.42628059  0.45936796    -0.14100
C700        C  0.40526979  0.45407700  0.45158811     0.08100
C701        C  0.39896633  0.46986013  0.43167027    -0.14100
C702        C  0.36739898  0.45715782  0.41956316    -0.14100
C703        C  0.34161291  0.42841279  0.42717728     0.08100
C704        C  0.34758620  0.41366111  0.44737035    -0.14100
H705        H  0.38308118  0.41389394  0.47474953     0.12100
H706        H  0.41855590  0.49177486  0.42548358     0.12100
H707        H  0.36392946  0.46884951  0.40399825     0.12100
H708        H  0.32867524  0.39127818  0.45371084     0.12100
N709        N  0.06639379  0.48467066  0.50107690    -0.37300
N710        N  0.50726602  0.48866011  0.53306088    -0.57900
N711        N  0.44879766  0.97776974  0.50254934    -0.37300
N712        N  0.50796448  0.97625221  0.46900489    -0.57900
C713        C  0.08568174  0.50182666  0.51720577     0.26300
C714        C  0.08621753  0.99259002  0.48344948     0.26300
C715        C  0.42768631  0.49318454  0.51872176     0.26200
C716        C  0.42819726  0.98366174  0.48496647     0.26200
C717        C  0.03919465  0.48511290  0.54490889     0.34900
C718        C  0.47687036  0.48197178  0.54567439     0.34900
C719        C  0.03992101  0.96483216  0.45798916     0.34900
C720        C  0.47699008  0.96106183  0.45881722     0.34900
C721        C  0.11790409  0.52132942  0.50969624    -0.22600
C722        C  0.11835876  0.01528027  0.48837732    -0.22600
C723        C  0.39347166  0.50957908  0.51117952    -0.22600
C724        C  0.39357659  0.00303199  0.48988897    -0.22600
C725        C  0.02924404  0.47500685  0.56510500    -0.23700
C726        C  0.48959008  0.47283730  0.56557036    -0.23700
C727        C  0.02911726  0.94235702  0.44062293    -0.23700
C728        C  0.48924592  0.94009727  0.44111372    -0.23700
C729        C  0.07582629  0.49811461  0.53853202    -0.19000
C730        C  0.07829519  0.97557197  0.46355200    -0.19000
C731        C  0.43794035  0.96742882  0.46512331    -0.19000
C732        C  0.43836109  0.49101934  0.54005661    -0.19000
H733        H  0.13928938  0.53756065  0.51864778     0.13900
H734        H  0.14022226  0.02570942  0.47772354     0.13900
H735        H  0.37055476  0.52430600  0.52001729     0.13900
H736        H  0.37064023  0.01120399  0.47921913     0.13900
H737        H  0.04842669  0.47158225  0.57831777     0.12200
H738        H  0.47205268  0.46730672  0.57920267     0.12200
H739        H  0.04784863  0.92863529  0.42893467     0.12200
H740        H  0.47140410  0.92454716  0.42982316     0.12200
H741        H  0.04373383  0.46455570  0.50225056     0.25400
H742        H  0.47365513  0.95988644  0.50350989     0.25400
N743        N  0.06508636  0.72821273  0.49474677    -0.37300
N744        N  0.50570658  0.73167942  0.46261400    -0.57900
N745        N  0.44779839  0.71902804  0.49259040    -0.37300
N746        N  0.50731001  0.71748403  0.52609084    -0.57900
C747        C  0.08385560  0.74675669  0.47921755     0.26300
C748        C  0.08542870  0.73472796  0.51245144     0.26300
C749        C  0.42635289  0.73434596  0.47683496     0.26200
C750        C  0.42736852  0.72480432  0.51031200     0.26200
C751        C  0.03768195  0.73136466  0.45071223     0.34900
C752        C  0.47568995  0.72601660  0.44955982     0.34900
C753        C  0.03906942  0.70626271  0.53706427     0.34900
C754        C  0.47636203  0.70222432  0.53596001     0.34900
C755        C  0.11636362  0.76558768  0.48717638    -0.22600
C756        C  0.11751472  0.75765897  0.50818348    -0.22600
C757        C  0.39199876  0.75025902  0.48474334    -0.22600
C758        C  0.39248247  0.74383412  0.50589175    -0.22600
C759        C  0.02821196  0.72437929  0.42994407    -0.23700
C760        C  0.48873074  0.72078779  0.42922776    -0.23700
C761        C  0.02819844  0.68395045  0.55409704    -0.23700
C762        C  0.48841039  0.68147470  0.55342649    -0.23700
C763        C  0.07366998  0.74469661  0.45790242    -0.19000
C764        C  0.07735512  0.71718094  0.53184139    -0.19000
C765        C  0.43745958  0.70873606  0.52979201    -0.19000
C766        C  0.43704992  0.73326012  0.45553425    -0.19000
H767        H  0.13753198  0.78252115  0.47867650     0.13900
H768        H  0.13960044  0.76727518  0.51905299     0.13900
H769        H  0.36884367  0.76474261  0.47623972     0.13900
H770        H  0.36960441  0.75183641  0.51679109     0.13900
H771        H  0.04750444  0.72414865  0.41661948     0.12200
H772        H  0.47144274  0.71724881  0.41526187     0.12200
H773        H  0.04685632  0.67061975  0.56569970     0.12200
H774        H  0.47047021  0.66602421  0.56447696     0.12200
H775        H  0.04242760  0.70820930  0.49293902     0.25400
H776        H  0.47279148  0.70137027  0.49123710     0.25400
O777        O  0.33641420  0.83918275  0.39298340    -0.80900
O778        O  0.17989534  0.83051425  0.35726019    -0.80900
O779        O  0.21141632  0.80633467  0.39974878    -0.80900
O780        O  0.28418267  0.85565758  0.32772194    -0.80800
O781        O  0.16881929  0.85401979  0.39500166    -0.81000
O782        O  0.32247436  0.83334616  0.35207373    -0.80900
O783        O  0.21597147  0.83153695  0.33013826    -0.80900
O784        O  0.29027078  0.79815546  0.40116415    -0.80900
C785        C  0.32571978  0.80664780  0.40076754     1.08800
C786        C  0.18752739  0.81742575  0.33903019     1.08700
C787        C  0.17737399  0.81968999  0.40180717     1.08800
C788        C  0.30917521  0.83083961  0.33375740     1.08700
O789        O  0.31096808  0.92064728  0.35132808    -0.80900
O790        O  0.20910814  0.92719355  0.39160727    -0.80900
O791        O  0.29570283  0.87771336  0.41941519    -0.80900
O792        O  0.19830647  0.90892324  0.33932455    -0.80900
O793        O  0.15306019  0.90823064  0.36360038    -0.80900
O794        O  0.30917647  0.92001532  0.39455735    -0.80900
O795        O  0.25164418  0.92549773  0.34047639    -0.80800
O796        O  0.21747153  0.88647154  0.41799754    -0.80900
Co797      Co  0.31350070  0.87750251  0.37296343     1.51500
Co798      Co  0.19937809  0.88066695  0.37300832     1.51700
Co799      Co  0.25346962  0.84281436  0.40742266     1.51600
Co800      Co  0.24227592  0.87112994  0.34667289     1.51500
O801        O  0.25515105  0.86124336  0.37708270    -1.42800
C802        C  0.28521497  0.93790334  0.34062506     1.08800
C803        C  0.20452553  0.91939622  0.41077951     1.08800
C804        C  0.31259877  0.90912592  0.41327250     1.08800
C805        C  0.16618927  0.92226434  0.34678275     1.08800
O806        O  0.31065512  0.67216036  0.60121359    -0.80900
O807        O  0.15567377  0.65904594  0.63724295    -0.80900
O808        O  0.21721872  0.63279711  0.57956498    -0.80900
O809        O  0.27914201  0.64579993  0.66750575    -0.80800
O810        O  0.20513867  0.67689902  0.60506235    -0.81000
O811        O  0.29978929  0.68253001  0.64252889    -0.80900
O812        O  0.21225889  0.67330762  0.65106998    -0.80900
O813        O  0.29652606  0.62547372  0.57775931    -0.80900
C814        C  0.31360651  0.65771718  0.58294073     1.08800
C815        C  0.17594031  0.68146484  0.64896993     1.08700
C816        C  0.20192672  0.66579296  0.58604400     1.08800
C817        C  0.29392868  0.67790850  0.66161960     1.08700
O818        O  0.32479208  0.59743874  0.64910704    -0.80900
O819        O  0.17002516  0.60260471  0.60595831    -0.80900
O820        O  0.29358660  0.55097774  0.59921294    -0.80900
O821        O  0.21594541  0.60636677  0.67509860    -0.80900
O822        O  0.18961750  0.58591844  0.64573089    -0.80900
O823        O  0.33962872  0.59330853  0.60700522    -0.80900
O824        O  0.26881076  0.56702420  0.65038374    -0.80800
O825        O  0.21392822  0.55635273  0.60062798    -0.80900
Co826      Co  0.31476057  0.63595858  0.62491775     1.51500
Co827      Co  0.20180872  0.63396412  0.62602832     1.51700
Co828      Co  0.25521144  0.59256445  0.59127996     1.51600
Co829      Co  0.24052359  0.61803974  0.64940912     1.51500
O830        O  0.25834723  0.62029764  0.61982845    -1.42800
C831        C  0.30427367  0.56790327  0.65490587     1.08800
C832        C  0.17945419  0.56853993  0.59862623     1.08800
C833        C  0.32894796  0.56015122  0.59916601     1.08800
C834        C  0.19369517  0.58266907  0.66566021     1.08800
N835        N  0.18171396  0.01586625  0.00256004    -0.37300
N836        N  0.23911834  0.00341091  0.03412462    -0.57900
N837        N  0.29804832  0.99960176  0.00322390    -0.37300
N838        N  0.24120133  0.00992833  0.96995291    -0.57900
C839        C  0.15991905  0.00100207  0.01817352     0.26300
C840        C  0.16143370  0.01176845  0.98469668     0.26300
C841        C  0.31656070  0.98405962  0.01991875     0.26200
C842        C  0.31716467  0.98665598  0.98595502     0.26200
C843        C  0.20779619  0.01163250  0.04597190     0.34900
C844        C  0.27009932  0.00728624  0.04665261     0.34900
C845        C  0.21235665  0.02899866  0.95959670     0.34900
C846        C  0.27456526  0.01746720  0.95968598     0.34900
C847        C  0.12550714  0.98673874  0.00998882    -0.22600
C848        C  0.12620519  0.99421897  0.98886096    -0.22600
C849        C  0.34734032  0.96012523  0.01317081    -0.22600
C850        C  0.34777210  0.96185826  0.99167928    -0.22600
C851        C  0.21883825  0.02178999  0.06614116    -0.23700
C852        C  0.25855202  0.01936209  0.06653747    -0.23700
C853        C  0.22737687  0.54852146  0.94254027    -0.23700
C854        C  0.26679563  0.54127203  0.94260398    -0.23700
C855        C  0.17004004  0.00223722  0.03960519    -0.19000
C856        C  0.17273261  0.02749952  0.96530506    -0.19000
C857        C  0.31154145  0.00271054  0.96586267    -0.19000
C858        C  0.30724381  0.99318510  0.04098834    -0.19000
H859        H  0.10199069  0.97312931  0.01833817     0.13900
H860        H  0.10340899  0.98766561  0.97780558     0.13900
H861        H  0.36782703  0.94385103  0.02271457     0.13900
H862        H  0.36906887  0.94783242  0.98143981     0.13900
H863        H  0.20012496  0.02822432  0.07936493     0.12200
H864        H  0.27661563  0.02364436  0.08015455     0.12200
H865        H  0.21172867  0.56652032  0.93137989     0.12200
H866        H  0.28727253  0.55295898  0.93155588     0.12200
H867        H  0.20711630  0.03210268  0.00412257     0.25400
H868        H  0.27710916  0.02236543  0.00366813     0.25400
N869        N  0.29911636  0.78278384  0.98749426    -0.37300
N870        N  0.24350392  0.78236796  0.02195198    -0.57900
N871        N  0.18464466  0.76362397  0.99186280    -0.37300
N872        N  0.24027186  0.76039664  0.95811537    -0.57900
C873        C  0.32187278  0.77828467  0.00447684     0.26300
C874        C  0.31991898  0.76960871  0.97077720     0.26300
C875        C  0.16546384  0.75960050  0.01008112     0.26200
C876        C  0.16501611  0.74269517  0.97717839     0.26200
C877        C  0.27448686  0.79803274  0.03177928     0.34900
C878        C  0.21208123  0.79265113  0.03353233     0.34900
C879        C  0.26799925  0.77134567  0.94459665     0.34900
C880        C  0.20730772  0.75708106  0.94704439     0.34900
C881        C  0.35717325  0.76150348  0.99859675    -0.22600
C882        C  0.35582728  0.75561761  0.97735925    -0.22600
C883        C  0.13351733  0.73563750  0.00709893    -0.22600
C884        C  0.13354749  0.72438309  0.98636853    -0.22600
C885        C  0.26287876  0.81789656  0.04993685    -0.23700
C886        C  0.22314731  0.81469632  0.05098150    -0.23700
C887        C  0.25240964  0.77562774  0.92480435    -0.23700
C888        C  0.21389302  0.76611968  0.92632203    -0.23700
C889        C  0.31301150  0.79272639  0.02476005    -0.19000
C890        C  0.30772092  0.77185979  0.94970975    -0.19000
C891        C  0.17214015  0.74378483  0.95542840    -0.19000
C892        C  0.17406509  0.78039663  0.02875968    -0.19000
H893        H  0.38150333  0.75454397  0.00858817     0.13900
H894        H  0.37883443  0.74254496  0.96791985     0.13900
H895        H  0.11217102  0.72761610  0.01862403     0.13900
H896        H  0.11199224  0.70599233  0.97879281     0.13900
H897        H  0.28106795  0.83317397  0.06116849     0.12200
H898        H  0.20465207  0.82679584  0.06324471     0.12200
H899        H  0.26743200  0.78351937  0.91065424     0.12200
H900        H  0.19322757  0.76564595  0.91364622     0.12200
H901        H  0.27286280  0.79846546  0.98702480     0.25400
H902        H  0.20633313  0.78422548  0.98913877     0.25400
O903        O  0.01331428  0.59768131  0.92701034    -0.80900
O904        O  0.03331472  0.66853399  0.84597584    -0.80900
O905        O  0.01252337  0.52866120  0.86799364    -0.80900
O906        O  0.04012300  0.67665623  0.89091835    -0.80800
O907        O  0.03446661  0.58186076  0.85115380    -0.81000
O908        O  0.01272334  0.67942989  0.92181486    -0.80900
O909        O  0.01023079  0.72464892  0.86032285    -0.80900
O910        O  0.04002047  0.58208016  0.89686275    -0.80900
C911        C  0.04208607  0.58486425  0.91654965     1.08800
C912        C  0.02966462  0.70686132  0.84593436     1.08700
C913        C  0.03164786  0.54355675  0.85294601     1.08800
C914        C  0.04187424  0.68433898  0.91019156     1.08700
O915        O  0.43131622  0.67660925  0.91468437    -0.80900
O916        O  0.46523827  0.59394276  0.83949963    -0.80900
O917        O  0.46450971  0.54528146  0.90514546    -0.80900
O918        O  0.43872122  0.69058282  0.86351816    -0.80900
O919        O  0.46216692  0.65666384  0.83768658    -0.80900
O920        O  0.43235861  0.59648708  0.91979699    -0.80900
O921        O  0.46624853  0.72085613  0.89813852    -0.80800
O922        O  0.44125238  0.56369222  0.86603696    -0.80900
Co923      Co  0.47249286  0.63728154  0.91906891     1.51500
Co924      Co  0.49638448  0.62749312  0.85747741     1.51700
Co925      Co  0.49005948  0.57536305  0.88160423     1.51600
Co926      Co  0.48937696  0.68199305  0.87705105     1.51500
O927        O  0.47335745  0.63043000  0.88768961    -1.42800
C928        C  0.43557796  0.71148814  0.90780272     1.08800
C929        C  0.44227129  0.56879663  0.84654483     1.08800
C930        C  0.43742065  0.55922024  0.91692996     1.08800
C931        C  0.43844170  0.68281406  0.84434549     1.08800
N932        N  0.12199295  0.87920654  0.71404081    -0.37300
N933        N  0.10275922  0.93824842  0.74656910    -0.57900
N934        N  0.07782166  0.87388379  0.77202029    -0.37300
N935        N  0.09350355  0.81438161  0.73968091    -0.57900
C936        C  0.12605604  0.91370987  0.70342907     0.26300
C937        C  0.12116910  0.84867755  0.69985036     0.26300
C938        C  0.06159417  0.90601248  0.78182440     0.26200
C939        C  0.05822212  0.84157131  0.77829770     0.26200
C940        C  0.12333390  0.96162842  0.73377922     0.34900
C941        C  0.09925718  0.95833954  0.76500188     0.34900
C942        C  0.11198340  0.79279548  0.72462425     0.34900
C943        C  0.08990901  0.79015060  0.75630868     0.34900
C944        C  0.12800217  0.90487571  0.68219991    -0.22600
C945        C  0.12458180  0.86399136  0.67994963    -0.22600
C946        C  0.03048125  0.89417898  0.79381764    -0.22600
C947        C  0.02844729  0.85329668  0.79164760    -0.22600
C948        C  0.13230241  0.99725887  0.74407455    -0.23700
C949        C  0.11761379  0.99484818  0.76394608    -0.23700
C950        C  0.11967225  0.75435499  0.73161460    -0.23700
C951        C  0.10589388  0.75278635  0.75178122    -0.23700
C952        C  0.13163731  0.95225330  0.71256756    -0.19000
C953        C  0.12104808  0.80722671  0.70453810    -0.19000
C954        C  0.07094234  0.80180045  0.77504443    -0.19000
C955        C  0.07724682  0.94470973  0.78204303    -0.19000
H956        H  0.13231781  0.92544336  0.66956285     0.13900
H957        H  0.12556657  0.84735103  0.66531967     0.13900
H958        H  0.51216956  0.91289767  0.80372939     0.13900
H959        H  0.50851583  0.83410185  0.79967963     0.13900
H960        H  0.14753357  0.52267000  0.73800099     0.12200
H961        H  0.11981421  0.51769788  0.77603101     0.12200
H962        H  0.13423170  0.73015430  0.72320176     0.12200
H963        H  0.10750228  0.72714481  0.76187260     0.12200
H964        H  0.12458908  0.87618307  0.73008707     0.25400
H965        H  0.10454624  0.87312943  0.76446677     0.25400
N966        N  0.34673218  0.87720458  0.72273925    -0.37300
N967        N  0.36027870  0.81653033  0.75400599    -0.57900
N968        N  0.38414367  0.87748631  0.78339863    -0.37300
N969        N  0.37480914  0.93848378  0.75099040    -0.57900
C970        C  0.34259953  0.84343053  0.71101372     0.26300
C971        C  0.35095563  0.90797598  0.70940751     0.26300
C972        C  0.39719687  0.84440968  0.79328878     0.26200
C973        C  0.40124552  0.90939863  0.79244778     0.26200
C974        C  0.34112094  0.79409563  0.73979684     0.34900
C975        C  0.36316719  0.79421847  0.77134100     0.34900
C976        C  0.36049982  0.96210467  0.73575000     0.34900
C977        C  0.37720292  0.96193613  0.76829969     0.34900
C978        C  0.34362599  0.85302559  0.69002671    -0.22600
C979        C  0.34927129  0.89359636  0.68902809    -0.22600
C980        C  0.42304720  0.85550275  0.80882655    -0.22600
C981        C  0.42546115  0.89664340  0.80836362    -0.22600
C982        C  0.33209455  0.75726401  0.74813650    -0.23700
C983        C  0.34573436  0.75751139  0.76816106    -0.23700
C984        C  0.35445276  0.00076379  0.74328209    -0.23700
C985        C  0.36469816  0.00060776  0.76392358    -0.23700
C986        C  0.33541593  0.80470921  0.71877627    -0.19000
C987        C  0.35259547  0.94908274  0.71513284    -0.19000
C988        C  0.39305386  0.94974260  0.78759841    -0.19000
C989        C  0.38454745  0.80491267  0.78925936    -0.19000
H990        H  0.34004355  0.83314309  0.67670325     0.13900
H991        H  0.35103786  0.91069882  0.67485531     0.13900
H992        H  0.43818598  0.83611199  0.81956227     0.13900
H993        H  0.44278728  0.91506192  0.81868330     0.13900
H994        H  0.31799787  0.73227415  0.74054681     0.12200
H995        H  0.34378164  0.73303537  0.77897600     0.12200
H996        H  0.34299109  0.52624065  0.73494911     0.12200
H997        H  0.36295853  0.52616934  0.77449394     0.12200
H998        H  0.34204511  0.87972380  0.73864234     0.25400
H999        H  0.36154295  0.87899996  0.77285684     0.25400
N1000       N  0.10132083  0.62068223  0.28940750    -0.37300
N1001       N  0.08533611  0.67968412  0.25809202    -0.57900
N1002       N  0.07754783  0.61804697  0.22650941    -0.37300
N1003       N  0.09579558  0.55796401  0.25711002    -0.57900
C1004       C  0.11504527  0.65423143  0.29887982     0.26300
C1005       C  0.11707530  0.58889148  0.29923088     0.26300
C1006       C  0.08048672  0.65120719  0.21476659     0.26200
C1007       C  0.08704167  0.58628300  0.21411878     0.26200
C1008       C  0.08400132  0.70280677  0.27551695     0.34900
C1009       C  0.06814646  0.70102560  0.24294788     0.34900
C1010       C  0.09665431  0.53500476  0.27431826     0.34900
C1011       C  0.08618528  0.53361136  0.24085742     0.34900
C1012       C  0.13945802  0.64363390  0.31504447    -0.22600
C1013       C  0.14004615  0.60255329  0.31560379    -0.22600
C1014       C  0.09225686  0.64036757  0.19473183    -0.22600
C1015       C  0.09611858  0.59931281  0.19429147    -0.22600
C1016       C  0.06526349  0.73879072  0.27163953    -0.23700
C1017       C  0.05445080  0.73737189  0.25102508    -0.23700
C1018       C  0.08794284  0.49572555  0.26886701    -0.23700
C1019       C  0.08094057  0.49495986  0.24773325    -0.23700
C1020       C  0.10486468  0.69403430  0.29371705    -0.19000
C1021       C  0.10994043  0.54808115  0.29419593    -0.19000
C1022       C  0.08444734  0.54570020  0.21978438    -0.19000
C1023       C  0.07074577  0.69058585  0.22156232    -0.19000
H1024       H  0.15493032  0.66326639  0.32560534     0.13900
H1025       H  0.15585898  0.58520196  0.32693063     0.13900
H1026       H  0.09728538  0.65988509  0.18171074     0.13900
H1027       H  0.10443485  0.58104757  0.18087314     0.13900
H1028       H  0.06094957  0.76378508  0.28239375     0.12200
H1029       H  0.03997563  0.76122531  0.24271531     0.12200
H1030       H  0.08748427  0.96998500  0.27888365     0.12200
H1031       H  0.07363429  0.96876923  0.23846243     0.12200
H1032       H  0.07986823  0.61925331  0.27804846     0.25400
H1033       H  0.06520059  0.61675143  0.24131143     0.25400
N1034       N  0.34126652  0.62351379  0.27472139    -0.37300
N1035       N  0.34852492  0.55899243  0.24340737    -0.57900
N1036       N  0.37419759  0.61639603  0.21288256    -0.37300
N1037       N  0.36479274  0.68077553  0.24405321    -0.57900
C1038       C  0.32483966  0.59347940  0.28522565     0.26300
C1039       C  0.33339045  0.65764398  0.28562380     0.26300
C1040       C  0.38551961  0.58174735  0.20322635     0.26200
C1041       C  0.39319105  0.64648131  0.20349125     0.26200
C1042       C  0.33789450  0.53694979  0.25989037     0.34900
C1043       C  0.35711990  0.53268703  0.22779588     0.34900
C1044       C  0.35484037  0.70701405  0.25942686     0.34900
C1045       C  0.37316258  0.70292594  0.22727384     0.34900
C1046       C  0.30678954  0.60861749  0.30311451    -0.22600
C1047       C  0.31247756  0.64906837  0.30344820    -0.22600
C1048       C  0.41113050  0.59014076  0.18724432    -0.22600
C1049       C  0.41611402  0.63084586  0.18748826    -0.22600
C1050       C  0.33950681  0.49647262  0.25464141    -0.23700
C1051       C  0.35115365  0.49382015  0.23427542    -0.23700
C1052       C  0.35659088  0.74594996  0.25232262    -0.23700
C1053       C  0.36733665  0.74331436  0.23185942    -0.23700
C1054       C  0.32641952  0.55252462  0.27961888    -0.19000
C1055       C  0.34267671  0.69670238  0.27960290    -0.19000
C1056       C  0.39019437  0.68780128  0.20869752    -0.19000
C1057       C  0.37462866  0.54248162  0.20865360    -0.19000
H1058       H  0.29071966  0.59230647  0.31465887     0.13900
H1059       H  0.30141366  0.66991305  0.31518739     0.13900
H1060       H  0.42559910  0.56902604  0.17677788     0.13900
H1061       H  0.43505280  0.64697074  0.17721721     0.13900
H1062       H  0.33367530  0.97124187  0.26449841     0.12200
H1063       H  0.35633398  0.96623325  0.22556966     0.12200
H1064       H  0.35030290  0.77352323  0.26083416     0.12200
H1065       H  0.37123067  0.76851748  0.22169166     0.12200
H1066       H  0.35932430  0.62031428  0.26185875     0.25400
H1067       H  0.35275500  0.61971524  0.22418389     0.25400
O1068       O  0.44517803  0.82110000  0.09564533    -0.80900
O1069       O  0.04179249  0.81511293  0.14517567    -0.80900
O1070       O  0.53346742  0.86743807  0.07774519    -0.80900
O1071       O  0.46498619  0.84138295  0.16358422    -0.80800
O1072       O  0.04491559  0.82021117  0.10093048    -0.81000
O1073       O  0.45100319  0.80639065  0.13652839    -0.80900
O1074       O  0.03279943  0.85346477  0.17309760    -0.80900
O1075       O  0.45464659  0.87201304  0.07519837    -0.80900
C1076       C  0.43998532  0.83796333  0.07839393     1.08800
C1077       C  0.04326820  0.81995536  0.16512154     1.08700
C1078       C  0.04866269  0.83371220  0.08262604     1.08800
C1079       C  0.45143176  0.80981543  0.15596900     1.08700
O1080       O  0.41873037  0.88952472  0.14574893    -0.80900
O1081       O  0.07669837  0.89728453  0.10466854    -0.80900
O1082       O  0.45303960  0.94384264  0.10003497    -0.80900
O1083       O  0.01005596  0.92309669  0.15572950    -0.80900
O1084       O  0.06725701  0.90223698  0.14663993    -0.80900
O1085       O  0.40964970  0.89727094  0.10450858    -0.80900
O1086       O  0.47459479  0.91386642  0.15726206    -0.80800
O1087       O  0.53227024  0.94312476  0.10179174    -0.80900
Co1088     Co  0.43560017  0.85431465  0.12075228     1.51500
Co1089     Co  0.05137335  0.85948261  0.12393384     1.51700
Co1090     Co  0.49366344  0.90523336  0.09086432     1.51600
Co1091     Co  0.50702370  0.86741033  0.14738182     1.51500
O1092       O  0.49119117  0.87653261  0.11909645    -1.42800
C1093       C  0.43757255  0.91486789  0.15679539     1.08800
C1094       C  0.06676094  0.93195578  0.09915526     1.08800
C1095       C  0.41841804  0.93226253  0.09900767     1.08800
C1096       C  0.04605792  0.92857475  0.15609833     1.08800
C1097       C  0.36824546  0.49516456  0.17778046    -0.14100
C1098       C  0.38896208  0.50869700  0.19533414     0.08100
C1099       C  0.42382342  0.98981099  0.20065489    -0.14100
C1100       C  0.43830293  0.95830613  0.18843281    -0.14100
C1101       C  0.41836225  0.94499910  0.17053228     0.08100
C1102       C  0.38282739  0.96322256  0.16544064    -0.14100
H1103       H  0.34115057  0.50954935  0.17359367     0.12100
H1104       H  0.43996473  0.99978471  0.21421816     0.12100
H1105       H  0.46563038  0.94465746  0.19286659     0.12100
H1106       H  0.36716729  0.95374082  0.15163290     0.12100
C1107       C  0.39476501  0.72096134  0.17401633    -0.14100
C1108       C  0.40797308  0.71721530  0.19457465     0.08100
C1109       C  0.43631009  0.74344415  0.20219926    -0.14100
C1110       C  0.44953886  0.77440504  0.18985982    -0.14100
C1111       C  0.43657122  0.77799463  0.16924194     0.08100
C1112       C  0.40945079  0.75075800  0.16131482    -0.14100
H1113       H  0.37276591  0.70115467  0.16793854     0.12100
H1114       H  0.44708232  0.74077431  0.21799813     0.12100
H1115       H  0.47050022  0.79502195  0.19628156     0.12100
H1116       H  0.39889281  0.75316599  0.14546855     0.12100
C1117       C  0.03568902  0.99378345  0.17426930    -0.14100
C1118       C  0.06061814  0.96111633  0.16982624     0.08100
C1119       C  0.09470655  0.95678582  0.18158183    -0.14100
C1120       C  0.10287230  0.98406809  0.19793564    -0.14100
C1121       C  0.07699170  0.51584876  0.20270844     0.08100
C1122       C  0.04364581  0.52060102  0.19052139    -0.14100
H1123       H  0.00894983  0.49768489  0.16567954     0.12100
H1124       H  0.11393758  0.93138454  0.17880888     0.12100
H1125       H  0.12897040  0.98010420  0.20704340     0.12100
H1126       H  0.02336219  0.54492233  0.19382082     0.12100
C1127       C  0.04050601  0.71796900  0.18904003    -0.14100
C1128       C  0.06598039  0.72272266  0.20592154     0.08100
C1129       C  0.08624562  0.75879998  0.20822301    -0.14100
C1130       C  0.07874835  0.79067734  0.19496271    -0.14100
C1131       C  0.05275519  0.78604031  0.17842808     0.08100
C1132       C  0.03490932  0.74903910  0.17499703    -0.14100
H1133       H  0.02458932  0.69047445  0.18691625     0.12100
H1134       H  0.10690636  0.76273350  0.22076128     0.12100
H1135       H  0.09332414  0.81885280  0.19752620     0.06500
H1136       H  0.51508078  0.74491148  0.16209060     0.12100
C1137       C  0.06249150  0.48014755  0.83836769    -0.14100
C1138       C  0.04682719  0.51854175  0.83555872     0.08100
C1139       C  0.04248102  0.03308328  0.81517090    -0.14100
C1140       C  0.05263809  0.00946473  0.79785936    -0.14100
C1141       C  0.06888148  0.97126095  0.80051261     0.08100
C1142       C  0.07425846  0.45703560  0.82096833    -0.14100
H1143       H  0.06566440  0.46817814  0.85389143     0.12100
H1144       H  0.02961151  0.06233971  0.81254829     0.12100
H1145       H  0.04701112  0.02072866  0.78237928     0.12100
H1146       H  0.08653086  0.42745707  0.82340329     0.12100
C1147       C  0.07657658  0.78562262  0.81294341    -0.14100
C1148       C  0.06530800  0.77366391  0.79264575     0.08100
C1149       C  0.54477691  0.73799915  0.79005245    -0.14100
C1150       C  0.53503250  0.71538658  0.80749939    -0.14100
C1151       C  0.04451382  0.72873229  0.82783205     0.08100
C1152       C  0.06554796  0.76386697  0.83039521    -0.14100
H1153       H  0.09244878  0.81306885  0.81533816     0.12100
H1154       H  0.53506020  0.72850065  0.77471082     0.12100
H1155       H  0.51845095  0.68837622  0.80520761     0.12100
H1156       H  0.07312319  0.77462499  0.84586896     0.12100
C1157       C  0.43676489  0.54242676  0.81074927    -0.14100
C1158       C  0.42325850  0.54205791  0.83148318     0.08100
C1159       C  0.39837613  0.51161371  0.83769717    -0.14100
C1160       C  0.38796055  0.98154609  0.82336964    -0.14100
C1161       C  0.40328094  0.98123576  0.80300870     0.08100
C1162       C  0.42795776  0.01170640  0.79694460    -0.14100
H1163       H  0.45629681  0.56520049  0.80539622     0.12100
H1164       H  0.38807590  0.51039009  0.85364163     0.12100
H1165       H  0.36868182  0.95812565  0.82820944     0.12100
H1166       H  0.44037799  0.01173136  0.78140585     0.12100
C1167       C  0.42787035  0.70803857  0.80869727    -0.14100
C1168       C  0.41731274  0.70897125  0.82985268     0.08100
C1169       C  0.39405410  0.74090401  0.83750522    -0.14100
C1170       C  0.38323954  0.77226737  0.82438997    -0.14100
C1171       C  0.39591044  0.77226002  0.80357630     0.08100
C1172       C  0.41795377  0.73972203  0.79582130    -0.14100
H1173       H  0.44600241  0.68408353  0.80237476     0.12100
H1174       H  0.38584945  0.74260499  0.85382378     0.12100
H1175       H  0.36569558  0.79687152  0.83052917     0.12100
H1176       H  0.42776220  0.73908558  0.77975230     0.12100
C1177       C  0.11377110  0.81998640  0.03558557    -0.14100
C1178       C  0.14105102  0.79185089  0.04262316     0.08100
C1179       C  0.13546325  0.77398826  0.06206060    -0.14100
C1180       C  0.10367182  0.78534737  0.07460975    -0.14100
C1181       C  0.07708845  0.81485818  0.06791141     0.08100
C1182       C  0.08225064  0.83140803  0.04805383    -0.14100
H1183       H  0.11734556  0.83371034  0.02050353     0.12100
H1184       H  0.15588985  0.75168240  0.06757440     0.12100
H1185       H  0.10084622  0.77229231  0.08989050     0.12100
H1186       H  0.06266620  0.85438540  0.04240739     0.12100
C1187       C  0.35281366  0.78292241  0.05721117    -0.14100
C1188       C  0.34596969  0.80335941  0.03858677     0.08100
C1189       C  0.37217589  0.83257323  0.03227413    -0.14100
C1190       C  0.40415982  0.84199073  0.04460580    -0.14100
C1191       C  0.41075176  0.82232295  0.06354340     0.08100
C1192       C  0.38497976  0.79225280  0.06957643    -0.14100
H1193       H  0.33321615  0.75987468  0.06216874     0.12100
H1194       H  0.36757088  0.84840700  0.01783456     0.12100
H1195       H  0.42308681  0.86559252  0.03960169     0.12100
H1196       H  0.38884975  0.77696214  0.08422385     0.12100
C1197       C  0.07274419  0.73614201  0.93199548    -0.14100
C1198       C  0.07665391  0.70186812  0.91926261     0.08100
C1199       C  0.11308569  0.68344416  0.91664726    -0.14100
C1200       C  0.14495490  0.69803584  0.92774176    -0.14100
C1201       C  0.14057579  0.73152171  0.94115765     0.08100
C1202       C  0.10458084  0.75123621  0.94260224    -0.14100
H1203       H  0.04479406  0.75076980  0.93404058     0.12100
H1204       H  0.11637210  0.65674269  0.90694190     0.12100
H1205       H  0.17252788  0.68236762  0.92655017     0.12100
H1206       H  0.10078564  0.77720001  0.95279208     0.12100
C1207       C  0.37274492  0.78809287  0.93408522    -0.14100
C1208       C  0.33750688  0.76726529  0.93289242     0.08100
C1209       C  0.33392247  0.73627672  0.91801717    -0.14100
C1210       C  0.36597391  0.72303565  0.90665078    -0.14100
C1211       C  0.40258211  0.73899117  0.91073554     0.08100
C1212       C  0.40553309  0.77340338  0.92337401    -0.14100
H1213       H  0.37603001  0.81254151  0.94522918     0.12100
H1214       H  0.30754426  0.71931013  0.91672745     0.12100
H1215       H  0.36320623  0.69649405  0.89682166     0.12100
H1216       H  0.43357453  0.78596894  0.92682395     0.12100
C1217       C  0.15588395  0.95542919  0.06837341    -0.14100
C1218       C  0.14321126  0.98699528  0.05576960     0.08100
C1219       C  0.10587786  0.00320350  0.05887744    -0.14100
C1220       C  0.08126330  0.98706848  0.07394862    -0.14100
C1221       C  0.09389898  0.95480900  0.08620835     0.08100
C1222       C  0.13179305  0.93989248  0.08351979    -0.14100
H1223       H  0.18446046  0.94225058  0.06622854     0.12100
H1224       H  0.09562862  0.02773646  0.04940975     0.12100
H1225       H  0.05200944  0.99876503  0.07545267     0.12100
H1226       H  0.14242605  0.91489222  0.09254705     0.12100
C1227       C  0.32395008  0.95470962  0.07286026    -0.14100
C1228       C  0.33490845  0.98233047  0.05777468     0.08100
C1229       C  0.37237689  0.99808380  0.05838661    -0.14100
C1230       C  0.39913052  0.98472449  0.07325231    -0.14100
C1231       C  0.38864603  0.95544982  0.08767721     0.08100
C1232       C  0.35031784  0.94181743  0.08778626    -0.14100
H1233       H  0.29528101  0.94198324  0.07260743     0.12100
H1234       H  0.38126353  0.01955203  0.04688580     0.12100
H1235       H  0.42856969  0.99531106  0.07256974     0.12100
H1236       H  0.34131891  0.91910255  0.09859471     0.12100
C1237       C  0.10532897  0.54598459  0.91895210    -0.14100
C1238       C  0.07766381  0.57236400  0.92795126     0.08100
C1239       C  0.08317393  0.58560018  0.94866847    -0.14100
C1240       C  0.11474881  0.57201052  0.96028866    -0.14100
C1241       C  0.14164287  0.54447525  0.95165198     0.08100
C1242       C  0.13693021  0.53197287  0.93074406    -0.14100
H1243       H  0.10183077  0.53516347  0.90305466     0.12100
H1244       H  0.06273122  0.60624178  0.95604145     0.12100
H1245       H  0.11778375  0.08242588  0.97630035     0.12100
H1246       H  0.15704646  0.51053890  0.92375019     0.12100
C1247       C  0.37892179  0.52830541  0.96244175    -0.14100
C1248       C  0.34695129  0.50992861  0.95292107     0.08100
C1249       C  0.34887592  0.00092356  0.93137095    -0.14100
C1250       C  0.38083707  0.01300717  0.91943329    -0.14100
C1251       C  0.41153901  0.53348464  0.92900422     0.08100
C1252       C  0.41076654  0.53961713  0.95069244    -0.14100
H1253       H  0.37842125  0.53599401  0.97892992     0.12100
H1254       H  0.32491300  0.98634310  0.92364572     0.12100
H1255       H  0.38028546  0.00895622  0.90263203     0.12100
H1256       H  0.43360886  0.55620457  0.95834925     0.12100
C1257       C  0.14053660  0.53409790  0.67230027    -0.14100
C1258       C  0.17729356  0.54896959  0.67703598     0.08100
C1259       C  0.19940961  0.53084626  0.69274501    -0.14100
C1260       C  0.18516268  0.99823849  0.70351319    -0.14100
C1261       C  0.14778119  0.98437098  0.69948209     0.08100
C1262       C  0.12551720  0.50247240  0.68378632    -0.14100
H1263       H  0.12315447  0.54761792  0.66017515     0.12100
H1264       H  0.22800853  0.54163838  0.69653352     0.12100
H1265       H  0.20281986  0.98453674  0.71547783     0.12100
H1266       H  0.09652564  0.49220066  0.68054090     0.12100
C1267       C  0.10815169  0.74669882  0.68164502    -0.14100
C1268       C  0.13297937  0.77763870  0.68797846     0.08100
C1269       C  0.17033763  0.77891556  0.67945810    -0.14100
C1270       C  0.18337504  0.74870061  0.66575491    -0.14100
C1271       C  0.15931620  0.71663385  0.66023180     0.08100
C1272       C  0.12117336  0.71647692  0.66778755    -0.14100
H1273       H  0.07917133  0.74525999  0.68800375     0.12100
H1274       H  0.18994779  0.80247633  0.68408419     0.12100
H1275       H  0.21283400  0.74966290  0.66002034     0.12100
H1276       H  0.10219292  0.69192273  0.66389541     0.12100
C1277       C  0.35596110  0.53853648  0.67850272    -0.14100
C1278       C  0.31944194  0.53621760  0.66890495     0.08100
C1279       C  0.29489692  0.50471053  0.67437207    -0.14100
C1280       C  0.30575924  0.47713631  0.68941908    -0.14100
C1281       C  0.34198560  0.97936033  0.69909419     0.08100
C1282       C  0.36721717  0.01017172  0.69343787    -0.14100
H1283       H  0.37537359  0.56261173  0.67481092     0.12100
H1284       H  0.26658004  0.50177031  0.66735365     0.12100
H1285       H  0.28567293  0.95394656  0.69362004     0.12100
H1286       H  0.39535814  0.01245340  0.70073642     0.12100
C1287       C  0.34152415  0.72584797  0.67594058    -0.14100
C1288       C  0.30438351  0.70956938  0.67657872     0.08100
C1289       C  0.27713346  0.72479666  0.69096852    -0.14100
C1290       C  0.28674900  0.75670478  0.70428604    -0.14100
C1291       C  0.32416033  0.77257790  0.70385422     0.08100
C1292       C  0.35160361  0.75659635  0.68979372    -0.14100
H1293       H  0.36286148  0.71431557  0.66491891     0.12100
H1294       H  0.24828312  0.71260028  0.69155721     0.12100
H1295       H  0.26533923  0.76861810  0.71515939     0.12100
H1296       H  0.38070676  0.76821170  0.68947764     0.12100
C1297       C  0.17488844  0.98333035  0.32668133    -0.14100
C1298       C  0.14900563  0.95681788  0.33598772     0.08100
C1299       C  0.10918640  0.96248191  0.33298748    -0.14100
C1300       C  0.09595424  0.99300991  0.31976065    -0.14100
C1301       C  0.12256008  0.51726222  0.30926840     0.08100
C1302       C  0.16209240  0.51192965  0.31284691    -0.14100
H1303       H  0.20551010  0.48129638  0.32976055     0.12100
H1304       H  0.08869693  0.94265638  0.34014748     0.12100
H1305       H  0.06520568  0.99694317  0.31717904     0.12100
H1306       H  0.18312129  0.53023653  0.30499790     0.12100
C1307       C  0.13617025  0.76405136  0.33808425    -0.14100
C1308       C  0.16383289  0.78720564  0.32785182     0.08100
C1309       C  0.16910826  0.78163038  0.30619834    -0.14100
C1310       C  0.14870194  0.75245162  0.29521685    -0.14100
C1311       C  0.12243491  0.72800267  0.30554150     0.08100
C1312       C  0.11568750  0.73449588  0.32699701    -0.14100
H1313       H  0.13113272  0.76809387  0.35467147     0.12100
H1314       H  0.18953271  0.79953963  0.29769657     0.12100
H1315       H  0.15432001  0.74806963  0.27868652     0.12100
H1316       H  0.09535775  0.71601358  0.33520766     0.12100
C1317       C  0.27284729  0.97267264  0.30762044    -0.14100
C1318       C  0.29472277  0.96935164  0.32605128     0.08100
C1319       C  0.32664544  0.99387944  0.32931862    -0.14100
C1320       C  0.33682870  0.52117084  0.31413125    -0.14100
C1321       C  0.31502431  0.52413977  0.29572880     0.08100
C1322       C  0.28243813  0.50048181  0.29275120    -0.14100
H1323       H  0.24880839  0.95301583  0.30442394     0.12100
H1324       H  0.34382675  0.99152174  0.34337987     0.12100
H1325       H  0.36185439  0.53983039  0.31659325     0.12100
H1326       H  0.26526827  0.50281020  0.27866870     0.12100
C1327       C  0.29280815  0.78558775  0.30433793    -0.14100
C1328       C  0.31916253  0.79672606  0.32001063     0.08100
C1329       C  0.35252243  0.77317953  0.32323104    -0.14100
C1330       C  0.36009165  0.73991181  0.31026895    -0.14100
C1331       C  0.33393155  0.72973058  0.29439764     0.08100
C1332       C  0.29988451  0.75204905  0.29183575    -0.14100
H1333       H  0.26637562  0.80255625  0.30183203     0.12100
H1334       H  0.37276662  0.78075593  0.33551653     0.12100
H1335       H  0.38636102  0.72241376  0.31240836     0.12100
H1336       H  0.27935875  0.74401712  0.27975584     0.12100
C1337       C  0.14273048  0.68610850  0.53779949    -0.14100
C1338       C  0.11082821  0.70780202  0.54590005     0.08100
C1339       C  0.11170366  0.72031105  0.56696634    -0.14100
C1340       C  0.14303727  0.70960298  0.57984431    -0.14100
C1341       C  0.17413740  0.68627904  0.57186451     0.08100
C1342       C  0.17391412  0.67563567  0.55053791    -0.14100
H1343       H  0.14300082  0.67620273  0.52161515     0.12100
H1344       H  0.08777914  0.73757249  0.57354307     0.12100
H1345       H  0.14190402  0.71771999  0.59626692     0.12100
H1346       H  0.19711002  0.65743409  0.54385836     0.12100
C1347       C  0.37766576  0.66969700  0.53587874    -0.14100
C1348       C  0.40517124  0.69682331  0.54349764     0.08100
C1349       C  0.40044777  0.71379819  0.56347746    -0.14100
C1350       C  0.36915069  0.70292109  0.57590022    -0.14100
C1351       C  0.34212471  0.67484126  0.56851816     0.08100
C1352       C  0.34644678  0.65881019  0.54824833    -0.14100
H1353       H  0.38068833  0.65659927  0.52037211     0.12100
H1354       H  0.42107417  0.73523545  0.56945841     0.12100
H1355       H  0.36692030  0.71543978  0.59155595     0.12100
H1356       H  0.32637838  0.63690546  0.54216891     0.12100
C1357       C  0.08859822  0.79787324  0.43287686    -0.14100
C1358       C  0.09966098  0.76215074  0.44250431     0.08100
C1359       C  0.13501691  0.74353536  0.43752133    -0.14100
C1360       C  0.15977747  0.76125490  0.42332505    -0.14100
C1361       C  0.14926060  0.79774528  0.41409782     0.08100
C1362       C  0.11318950  0.81552925  0.41869307    -0.14100
H1363       H  0.06119380  0.81237223  0.43667467     0.12100
H1364       H  0.14356232  0.71579076  0.44486789     0.12100
H1365       H  0.18756173  0.74710561  0.42008868     0.12100
H1366       H  0.10452566  0.84378693  0.41191621     0.12100
C1367       C  0.41912515  0.78132539  0.42777803    -0.14100
C1368       C  0.40930752  0.74788467  0.43951280     0.08100
C1369       C  0.37262445  0.73083539  0.43679054    -0.14100
C1370       C  0.34553790  0.74835964  0.42326772    -0.14100
C1371       C  0.35511622  0.78275465  0.41208907     0.08100
C1372       C  0.39268270  0.79814452  0.41405569    -0.14100
H1373       H  0.44698793  0.79536952  0.42977335     0.12100
H1374       H  0.36453689  0.70496606  0.44571478     0.12100
H1375       H  0.31680360  0.73599922  0.42217465     0.12100
H1376       H  0.40120098  0.82472107  0.40582433     0.12100
C1377       C  0.13925359  0.49714263  0.55783279    -0.14100
C1378       C  0.10222264  0.51378143  0.55487367     0.08100
C1379       C  0.08980981  0.54606764  0.56756771    -0.14100
C1380       C  0.11423679  0.56215001  0.58267805    -0.14100
C1381       C  0.15181786  0.54652391  0.58531668     0.08100
C1382       C  0.16393702  0.51341184  0.57297826    -0.14100
H1383       H  0.14917489  0.97209166  0.54821291     0.12100
H1384       H  0.06132798  0.55934015  0.56546759     0.12100
H1385       H  0.10411587  0.58782919  0.59178151     0.12100
H1386       H  0.19289316  0.00104487  0.57451331     0.12100
C1387       C  0.42208190  0.53405715  0.57130821    -0.14100
C1388       C  0.41068764  0.50440234  0.55687377     0.08100
C1389       C  0.37294983  0.48932066  0.55826904    -0.14100
C1390       C  0.34661903  0.50529668  0.57304869    -0.14100
C1391       C  0.35783405  0.53614489  0.58692622     0.08100
C1392       C  0.39632173  0.54919262  0.58628626    -0.14100
H1393       H  0.45076982  0.54662472  0.57056192     0.12100
H1394       H  0.36348479  0.96622713  0.54744953     0.12100
H1395       H  0.31709653  0.49486384  0.57294543     0.12100
H1396       H  0.40608843  0.57297994  0.59660686     0.12100
C1397       C  0.14459759  0.94584939  0.45808886    -0.14100
C1398       C  0.11226843  0.96567499  0.44958093     0.08100
C1399       C  0.11334689  0.97560087  0.42828139    -0.14100
C1400       C  0.14517184  0.96390421  0.41566735    -0.14100
C1401       C  0.17669966  0.94252927  0.42421023     0.08100
C1402       C  0.17636346  0.93496165  0.44571935    -0.14100
H1403       H  0.14484403  0.93762908  0.47437675     0.12100
H1404       H  0.08919217  0.49139073  0.42130231     0.12100
H1405       H  0.14407248  0.96952859  0.39907590     0.12100
H1406       H  0.19984212  0.91827424  0.45283608     0.12100
C1407       C  0.37896006  0.92630948  0.45937059    -0.14100
C1408       C  0.40527501  0.95409271  0.45159015     0.08100
C1409       C  0.39898408  0.96986780  0.43166930    -0.14100
C1410       C  0.36741819  0.95716896  0.41955982    -0.14100
C1411       C  0.34162019  0.92843574  0.42717447     0.08100
C1412       C  0.34757962  0.91369403  0.44737076    -0.14100
H1413       H  0.38306301  0.91392891  0.47475431     0.12100
H1414       H  0.41858295  0.99177280  0.42548178     0.12100
H1415       H  0.36395946  0.96885318  0.40399268     0.12100
H1416       H  0.32865892  0.89132081  0.45371210     0.12100
N1417       N  0.56639936  0.98467005  0.50108145    -0.37300
N1418       N  0.00726734  0.98865624  0.53306621    -0.57900
N1419       N  0.94879403  0.47776930  0.50254430    -0.37300
N1420       N  0.00795737  0.47624708  0.46900004    -0.57900
C1421       C  0.58568579  0.00182321  0.51721167     0.26300
C1422       C  0.58621029  0.49258621  0.48344405     0.26300
C1423       C  0.92769034  0.99318837  0.51872657     0.26200
C1424       C  0.92819011  0.48365486  0.48496212     0.26200
C1425       C  0.53919594  0.98510818  0.54491421     0.34900
C1426       C  0.97687107  0.98197215  0.54568020     0.34900
C1427       C  0.53991400  0.46481984  0.45798622     0.34900
C1428       C  0.97698320  0.46105292  0.45881377     0.34900
C1429       C  0.61790924  0.02132679  0.50970405    -0.22600
C1430       C  0.61835182  0.51527771  0.48836973    -0.22600
C1431       C  0.89348011  0.00959091  0.51118342    -0.22600
C1432       C  0.89356603  0.50301785  0.48988531    -0.22600
C1433       C  0.52924460  0.97500564  0.56511079    -0.23700
C1434       C  0.98959042  0.97283917  0.56557643    -0.23700
C1435       C  0.52911042  0.44233732  0.44062249    -0.23700
C1436       C  0.98923893  0.44008042  0.44111282    -0.23700
C1437       C  0.57582787  0.99810976  0.53853753    -0.19000
C1438       C  0.57828819  0.47555978  0.46354863    -0.19000
C1439       C  0.93793379  0.46742048  0.46511958    -0.19000
C1440       C  0.93836206  0.99102111  0.54006194    -0.19000
H1441       H  0.63929355  0.03755667  0.51865697     0.13900
H1442       H  0.64021489  0.52570354  0.47771476     0.13900
H1443       H  0.87056536  0.02432270  0.52002069     0.13900
H1444       H  0.87062601  0.51118251  0.47921620     0.13900
H1445       H  0.54842698  0.97158263  0.57832380     0.12200
H1446       H  0.97205296  0.96731156  0.57920908     0.12200
H1447       H  0.54784202  0.42860896  0.42893638     0.12200
H1448       H  0.97139687  0.42452556  0.42982414     0.12200
H1449       H  0.54373804  0.96455640  0.50225375     0.25400
H1450       H  0.97365456  0.45989069  0.50350460     0.25400
N1451       N  0.56507837  0.22819245  0.49475830    -0.37300
N1452       N  0.00570754  0.23167149  0.46262178    -0.57900
N1453       N  0.94779065  0.21900758  0.49259194    -0.37300
N1454       N  0.00729399  0.21745239  0.52609660    -0.57900
C1455       C  0.58385244  0.24673945  0.47923186     0.26300
C1456       C  0.58541389  0.23470641  0.51246525     0.26300
C1457       C  0.92634929  0.23433035  0.47683605     0.26200
C1458       C  0.92735550  0.22477647  0.51031239     0.26200
C1459       C  0.53768702  0.23135229  0.45072269     0.34900
C1460       C  0.97569475  0.22600948  0.44956482     0.34900
C1461       C  0.53905047  0.20622836  0.53707129     0.34900
C1462       C  0.97634388  0.20218870  0.53596179     0.34900
C1463       C  0.61635678  0.26557098  0.48719451    -0.22600
C1464       C  0.61749993  0.25764070  0.50820155    -0.22600
C1465       C  0.89199247  0.25023940  0.48474318    -0.22600
C1466       C  0.89247011  0.24380654  0.50589097    -0.22600
C1467       C  0.52822332  0.22436651  0.42995379    -0.23700
C1468       C  0.98874212  0.22077792  0.42923414    -0.23700
C1469       C  0.52817557  0.18390909  0.55410083    -0.23700
C1470       C  0.98838782  0.18143292  0.55342720    -0.23700
C1471       C  0.57367404  0.24468111  0.45791596    -0.19000
C1472       C  0.57733655  0.21715209  0.53185285    -0.19000
C1473       C  0.93744317  0.20870473  0.52979225    -0.19000
C1474       C  0.93705239  0.23325095  0.45553595    -0.19000
H1475       H  0.63752781  0.28250550  0.47869712     0.13900
H1476       H  0.63958156  0.26725642  0.51907365     0.13900
H1477       H  0.86883968  0.26472613  0.47623923     0.13900
H1478       H  0.86958888  0.25180482  0.51678912     0.13900
H1479       H  0.54752040  0.22413280  0.41663112     0.12200
H1480       H  0.97145875  0.21723695  0.41526673     0.12200
H1481       H  0.54683056  0.17057464  0.56570365     0.12200
H1482       H  0.97044471  0.16597864  0.56447484     0.12200
H1483       H  0.54242184  0.20818727  0.49294713     0.25400
H1484       H  0.97278499  0.20135165  0.49123913     0.25400
O1485       O  0.83641303  0.33916865  0.39298428    -0.80900
O1486       O  0.67988314  0.33050057  0.35726592    -0.80900
O1487       O  0.71141545  0.30630716  0.39975154    -0.80900
O1488       O  0.78417401  0.35563624  0.32772522    -0.80800
O1489       O  0.66881954  0.35399523  0.39500817    -0.81000
O1490       O  0.82248117  0.33334577  0.35207542    -0.80900
O1491       O  0.71596700  0.33150146  0.33014615    -0.80900
O1492       O  0.79027345  0.29813276  0.40116136    -0.80900
C1493       C  0.82572193  0.30662849  0.40076490     1.08800
C1494       C  0.68751712  0.31740268  0.33903796     1.08700
C1495       C  0.67737430  0.31966462  0.40181307     1.08800
C1496       C  0.80918045  0.33083329  0.33375987     1.08700
O1497       O  0.81095033  0.42064418  0.35133324    -0.80900
O1498       O  0.70911384  0.42716849  0.39161525    -0.80900
O1499       O  0.79570216  0.37768545  0.41941797    -0.80900
O1500       O  0.69829951  0.40890349  0.33933272    -0.80900
O1501       O  0.65305735  0.40821727  0.36361101    -0.80900
O1502       O  0.80915825  0.41999982  0.39456344    -0.80900
O1503       O  0.75163341  0.42546073  0.34046568    -0.80800
O1504       O  0.71747147  0.38644146  0.41800386    -0.80900
Co1505     Co  0.81349394  0.37749402  0.37296704     1.51500
Co1506     Co  0.69937509  0.38064790  0.37301493     1.51700
Co1507     Co  0.75346977  0.34278690  0.40742496     1.51600
Co1508     Co  0.74226722  0.37110094  0.34667632     1.51500
O1509       O  0.75514774  0.36122204  0.37708568    -1.42800
C1510       C  0.78519868  0.43788163  0.34062056     1.08800
C1511       C  0.70452727  0.41936772  0.41078666     1.08800
C1512       C  0.81258949  0.40910406  0.41327694     1.08800
C1513       C  0.66618575  0.42225030  0.34679303     1.08800
O1514       O  0.81064107  0.17215329  0.60121724    -0.80900
O1515       O  0.65566288  0.15903807  0.63725059    -0.80900
O1516       O  0.71720540  0.13278721  0.57957504    -0.80900
O1517       O  0.77913323  0.14580383  0.66751229    -0.80800
O1518       O  0.70513040  0.17689219  0.60507172    -0.81000
O1519       O  0.79978009  0.18252988  0.64253337    -0.80900
O1520       O  0.71224646  0.17330638  0.65107735    -0.80900
O1521       O  0.79651036  0.12546236  0.57776556    -0.80900
C1522       C  0.81359048  0.15770677  0.58294490     1.08800
C1523       C  0.67592731  0.18146059  0.64897649     1.08700
C1524       C  0.70191499  0.16578383  0.58605410     1.08800
C1525       C  0.79391916  0.17791171  0.66162441     1.08700
O1526       O  0.82478524  0.09744041  0.64911388    -0.80900
O1527       O  0.67001603  0.10259800  0.60596846    -0.80900
O1528       O  0.79357816  0.05096963  0.59922015    -0.80900
O1529       O  0.71593625  0.10636661  0.67510763    -0.80900
O1530       O  0.68961018  0.08591495  0.64573995    -0.80900
O1531       O  0.83961873  0.09330337  0.60701126    -0.80900
O1532       O  0.76880400  0.06702562  0.65039367    -0.80800
O1533       O  0.71391823  0.05634482  0.60064048    -0.80900
Co1534     Co  0.81475079  0.13595588  0.62492324     1.51500
Co1535     Co  0.70179994  0.13395867  0.62603739     1.51700
Co1536     Co  0.75519949  0.09255515  0.59128905     1.51600
Co1537     Co  0.74051450  0.11803919  0.64941777     1.51500
O1538       O  0.75833783  0.12029225  0.61983662    -1.42800
C1539       C  0.80426777  0.06790510  0.65491388     1.08800
C1540       C  0.67944483  0.06853272  0.59863723     1.08800
C1541       C  0.82893922  0.06014540  0.59917196     1.08800
C1542       C  0.69368641  0.08266808  0.66566927     1.08800
N1543       N  0.68172763  0.51586391  0.00255831    -0.37300
N1544       N  0.73912934  0.50339331  0.03412158    -0.57900
N1545       N  0.79805710  0.49956733  0.00321932    -0.37300
N1546       N  0.74121404  0.50991175  0.96994959    -0.57900
C1547       C  0.65993006  0.50100521  0.01817228     0.26300
C1548       C  0.66144699  0.51176706  0.98469496     0.26300
C1549       C  0.81656601  0.48401909  0.01991352     0.26200
C1550       C  0.81717253  0.48662185  0.98595017     0.26200
C1551       C  0.70781047  0.51162387  0.04596974     0.34900
C1552       C  0.77011220  0.50725787  0.04664889     0.34900
C1553       C  0.71237223  0.52898909  0.95959451     0.34900
C1554       C  0.77457946  0.51744732  0.95968322     0.34900
C1555       C  0.62551593  0.48674696  0.00998815    -0.22600
C1556       C  0.62621574  0.49422371  0.98885995    -0.22600
C1557       C  0.84734178  0.46007984  0.01316485    -0.22600
C1558       C  0.84777554  0.46181745  0.99167342    -0.22600
C1559       C  0.71885668  0.52177564  0.06613906    -0.23700
C1560       C  0.75856982  0.51933586  0.06653432    -0.23700
C1561       C  0.72735814  0.04852984  0.94254137    -0.23700
C1562       C  0.76677777  0.04128675  0.94260540    -0.23700
C1563       C  0.67005174  0.50223893  0.03960380    -0.19000
C1564       C  0.67274768  0.52749529  0.96530282    -0.19000
C1565       C  0.81155349  0.50268319  0.96585917    -0.19000
C1566       C  0.80725247  0.49314723  0.04098313    -0.19000
H1567       H  0.60199718  0.47314297  0.01833813     0.13900
H1568       H  0.60341853  0.48767267  0.97780482     0.13900
H1569       H  0.86782570  0.44380088  0.02270818     0.13900
H1570       H  0.86907105  0.44779066  0.98143353     0.13900
H1571       H  0.70014604  0.52821367  0.07936348     0.12200
H1572       H  0.77663551  0.52361191  0.08015111     0.12200
H1573       H  0.71170711  0.06652331  0.93137976     0.12200
H1574       H  0.78725264  0.05297453  0.93155646     0.12200
H1575       H  0.70713271  0.53209600  0.00412035     0.25400
H1576       H  0.77712296  0.52233587  0.00366449     0.25400
N1577       N  0.79913698  0.28279539  0.98748576    -0.37300
N1578       N  0.74353699  0.28238584  0.02194903    -0.57900
N1579       N  0.68466395  0.26365959  0.99186453    -0.37300
N1580       N  0.74027830  0.26042204  0.95811152    -0.57900
C1581       C  0.82189937  0.27828645  0.00446547     0.26300
C1582       C  0.81993122  0.26962177  0.97076531     0.26300
C1583       C  0.66549355  0.25963262  0.01008577     0.26200
C1584       C  0.66503145  0.24272536  0.97718360     0.26200
C1585       C  0.77452781  0.29803590  0.03177523     0.34900
C1586       C  0.71212109  0.29267250  0.03353395     0.34900
C1587       C  0.76800218  0.27136869  0.94458989     0.34900
C1588       C  0.70730926  0.25710896  0.94704421     0.34900
C1589       C  0.85719474  0.26150065  0.99858005    -0.22600
C1590       C  0.85583961  0.25562169  0.97734239    -0.22600
C1591       C  0.63355098  0.23566188  0.00710916    -0.22600
C1592       C  0.63357253  0.22440586  0.98637926    -0.22600
C1593       C  0.76293158  0.31789416  0.04993663    -0.23700
C1594       C  0.72319934  0.31470623  0.05098472    -0.23700
C1595       C  0.75240515  0.27565234  0.92479938    -0.23700
C1596       C  0.71388785  0.26614768  0.92632125    -0.23700
C1597       C  0.81304854  0.29272126  0.02475134    -0.19000
C1598       C  0.80772630  0.27188119  0.94969913    -0.19000
C1599       C  0.67214378  0.24381386  0.95543233    -0.19000
C1600       C  0.67410071  0.28042907  0.02876334    -0.19000
H1601       H  0.88152732  0.25453280  0.00856815     0.13900
H1602       H  0.87884076  0.24254659  0.96789961     0.13900
H1603       H  0.61221367  0.22763499  0.01863802     0.13900
H1604       H  0.61201844  0.20600729  0.97880790     0.13900
H1605       H  0.78112904  0.33316004  0.06116856     0.12200
H1606       H  0.70471213  0.32680571  0.06325141     0.12200
H1607       H  0.76742267  0.28354334  0.91064768     0.12200
H1608       H  0.69321756  0.26567640  0.91364774     0.12200
H1609       H  0.77288540  0.29848124  0.98702037     0.25400
H1610       H  0.70634812  0.28426459  0.98913726     0.25400
O1611       O  0.51329950  0.09768188  0.92700998    -0.80900
O1612       O  0.53331327  0.16852840  0.84597095    -0.80900
O1613       O  0.51251425  0.02865751  0.86799641    -0.80900
O1614       O  0.54013119  0.17665324  0.89092640    -0.80800
O1615       O  0.53445855  0.08185072  0.85115150    -0.81000
O1616       O  0.51271636  0.17943112  0.92181877    -0.80900
O1617       O  0.51025380  0.22464689  0.86032664    -0.80900
O1618       O  0.54001298  0.08208216  0.89686368    -0.80900
C1619       C  0.54207411  0.08486614  0.91655071     1.08800
C1620       C  0.52967475  0.20685744  0.84593378     1.08700
C1621       C  0.53163623  0.04354749  0.85294630     1.08800
C1622       C  0.54187349  0.18433959  0.91019974     1.08700
O1623       O  0.93131054  0.17662012  0.91467831    -0.80900
O1624       O  0.96522697  0.09393937  0.83950019    -0.80900
O1625       O  0.96450250  0.04528772  0.90514750    -0.80900
O1626       O  0.93874066  0.19059314  0.86351492    -0.80900
O1627       O  0.96217069  0.15666170  0.83768332    -0.80900
O1628       O  0.93234270  0.09649720  0.91978852    -0.80900
O1629       O  0.96625657  0.22086179  0.89813713    -0.80800
O1630       O  0.94124501  0.06369291  0.86603974    -0.80900
Co1631     Co  0.97248209  0.13728678  0.91906656     1.51500
Co1632     Co  0.99638206  0.12748870  0.85747490     1.51700
Co1633     Co  0.99005384  0.07536417  0.88160512     1.51600
Co1634     Co  0.98939059  0.18199505  0.87705264     1.51500
O1635       O  0.97335777  0.13043455  0.88768771    -1.42800
C1636       C  0.93558022  0.21149879  0.90779763     1.08800
C1637       C  0.94225961  0.06879551  0.84654751     1.08800
C1638       C  0.93740748  0.05922963  0.91692683     1.08800
C1639       C  0.93845581  0.18282113  0.84434259     1.08800
N1640       N  0.62199334  0.37921244  0.71403995    -0.37300
N1641       N  0.60277650  0.43825764  0.74656862    -0.57900
N1642       N  0.57782609  0.37389750  0.77202063    -0.37300
N1643       N  0.59349037  0.31439250  0.73968075    -0.57900
C1644       C  0.62606361  0.41371474  0.70342796     0.26300
C1645       C  0.62116107  0.34868350  0.69984964     0.26300
C1646       C  0.56160488  0.40603010  0.78182424     0.26200
C1647       C  0.55822152  0.34158912  0.77829942     0.26200
C1648       C  0.62335560  0.46163314  0.73377845     0.34900
C1649       C  0.59928010  0.45834851  0.76500177     0.34900
C1650       C  0.61196780  0.29280377  0.72462416     0.34900
C1651       C  0.58989598  0.29016294  0.75630922     0.34900
C1652       C  0.62800610  0.40487952  0.68219881    -0.22600
C1653       C  0.62457515  0.36399636  0.67994879    -0.22600
C1654       C  0.53049037  0.39420309  0.79381822    -0.22600
C1655       C  0.52844999  0.35332091  0.79164978    -0.22600
C1656       C  0.63233326  0.49726056  0.74407424    -0.23700
C1657       C  0.61764593  0.49485212  0.76394617    -0.23700
C1658       C  0.61965532  0.25436363  0.73161542    -0.23700
C1659       C  0.60587842  0.25279749  0.75178224    -0.23700
C1660       C  0.63165334  0.45225747  0.71256604    -0.19000
C1661       C  0.62103319  0.30723259  0.70453752    -0.19000
C1662       C  0.57093350  0.30181560  0.77504574    -0.19000
C1663       C  0.57726587  0.44472405  0.78204281    -0.19000
H1664       H  0.63232645  0.42544511  0.66956136     0.13900
H1665       H  0.62555454  0.34735594  0.66531880     0.13900
H1666       H  0.01218282  0.41292575  0.80372993     0.13900
H1667       H  0.00851701  0.33413001  0.79968299     0.13900
H1668       H  0.64749749  0.02267148  0.73800097     0.12200
H1669       H  0.61977495  0.01769538  0.77603050     0.12200
H1670       H  0.63421418  0.23016163  0.72320335     0.12200
H1671       H  0.60748783  0.22715710  0.76187435     0.12200
H1672       H  0.62458992  0.37618807  0.73008615     0.25400
H1673       H  0.60454995  0.37313752  0.76446637     0.25400
N1674       N  0.84672803  0.37721125  0.72273868    -0.37300
N1675       N  0.86029035  0.31653686  0.75400348    -0.57900
N1676       N  0.88417015  0.37749250  0.78339191    -0.37300
N1677       N  0.87481876  0.43848968  0.75098583    -0.57900
C1678       C  0.84259606  0.34343605  0.71101429     0.26300
C1679       C  0.85095245  0.40798096  0.70940629     0.26300
C1680       C  0.89722635  0.34441624  0.79328080     0.26200
C1681       C  0.90127275  0.40940500  0.79243975     0.26200
C1682       C  0.84112030  0.29410506  0.73979816     0.34900
C1683       C  0.86318253  0.29422686  0.77133887     0.34900
C1684       C  0.86050706  0.46211119  0.73574642     0.34900
C1685       C  0.87722384  0.46194353  0.76829398     0.34900
C1686       C  0.84362453  0.35302811  0.69002704    -0.22600
C1687       C  0.84926930  0.39359893  0.68902726    -0.22600
C1688       C  0.92308089  0.35550982  0.80881647    -0.22600
C1689       C  0.92549261  0.39665059  0.80835384    -0.22600
C1690       C  0.83208860  0.25727740  0.74814048    -0.23700
C1691       C  0.84573913  0.25752390  0.76816308    -0.23700
C1692       C  0.85446994  0.50077235  0.74327789    -0.23700
C1693       C  0.86472479  0.50061714  0.76391809    -0.23700
C1694       C  0.83541130  0.30471625  0.71877788    -0.19000
C1695       C  0.85259476  0.44908812  0.71513039    -0.19000
C1696       C  0.89307793  0.44974840  0.78759151    -0.19000
C1697       C  0.88457304  0.30491987  0.78925378    -0.19000
H1698       H  0.84004465  0.33314297  0.67670439     0.13900
H1699       H  0.85103784  0.41069970  0.67485401     0.13900
H1700       H  0.93822243  0.33611958  0.81955131     0.13900
H1701       H  0.94281909  0.41506996  0.81867292     0.13900
H1702       H  0.81798080  0.23229139  0.74055344     0.12200
H1703       H  0.84378539  0.23305045  0.77897951     0.12200
H1704       H  0.84297202  0.02623121  0.73495317     0.12200
H1705       H  0.86292156  0.02615833  0.77450046     0.12200
H1706       H  0.84203986  0.37973234  0.73864271     0.25400
H1707       H  0.86156437  0.37900613  0.77285196     0.25400
N1708       N  0.60128973  0.12068418  0.28940897    -0.37300
N1709       N  0.58532787  0.17969124  0.25809544    -0.57900
N1710       N  0.57755898  0.11805994  0.22650587    -0.37300
N1711       N  0.59578085  0.05797213  0.25710359    -0.57900
C1712       C  0.61501432  0.15423015  0.29888407     0.26300
C1713       C  0.61704992  0.08889141  0.29922749     0.26300
C1714       C  0.58051030  0.15122274  0.21476612     0.26200
C1715       C  0.58704935  0.08629648  0.21411372     0.26200
C1716       C  0.58398013  0.20281004  0.27552153     0.34900
C1717       C  0.56815841  0.20104003  0.24294779     0.34900
C1718       C  0.59662835  0.03501221  0.27431153     0.34900
C1719       C  0.58617087  0.03362215  0.24084981     0.34900
C1720       C  0.63943294  0.14362836  0.31504547    -0.22600
C1721       C  0.64002559  0.10254765  0.31559964    -0.22600
C1722       C  0.59228554  0.14038561  0.19473187    -0.22600
C1723       C  0.59613773  0.09932982  0.19428864    -0.22600
C1724       C  0.56525357  0.23879891  0.27164112    -0.23700
C1725       C  0.55446310  0.23738799  0.25102324    -0.23700
C1726       C  0.58790911  0.99573568  0.26885956    -0.23700
C1727       C  0.58091342  0.99497214  0.24772520    -0.23700
C1728       C  0.60483298  0.19403357  0.29372440    -0.19000
C1729       C  0.60991491  0.04808362  0.29418945    -0.19000
C1730       C  0.58444473  0.04571229  0.21977654    -0.19000
C1731       C  0.57077100  0.19060157  0.22156261    -0.19000
H1732       H  0.65490834  0.16325779  0.32560653     0.13900
H1733       H  0.65584513  0.08519199  0.32692212     0.13900
H1734       H  0.59732191  0.15990577  0.18171274     0.13900
H1735       H  0.60445487  0.08106647  0.18086981     0.13900
H1736       H  0.56093594  0.26379250  0.28239543     0.12200
H1737       H  0.54000209  0.26124701  0.24271091     0.12200
H1738       H  0.58752796  0.46997385  0.27889072     0.12200
H1739       H  0.57366670  0.46875474  0.23847073     0.12200
H1740       H  0.57983499  0.11925780  0.27805085     0.25400
H1741       H  0.56520470  0.11676396  0.24130613     0.25400
N1742       N  0.84132701  0.12352639  0.27473089    -0.37300
N1743       N  0.84856552  0.05900463  0.24341793    -0.57900
N1744       N  0.87420794  0.11640551  0.21288389    -0.37300
N1745       N  0.86482666  0.18078419  0.24405468    -0.57900
C1746       C  0.82488722  0.09349677  0.28523301     0.26300
C1747       C  0.83344031  0.15765921  0.28562841     0.26300
C1748       C  0.88552321  0.08175683  0.20322595     0.26200
C1749       C  0.89319164  0.14649018  0.20348654     0.26200
C1750       C  0.83795753  0.03696294  0.25990543     0.34900
C1751       C  0.85716078  0.03269642  0.22780797     0.34900
C1752       C  0.85488749  0.20702440  0.25942977     0.34900
C1753       C  0.87317983  0.20293389  0.22727261     0.34900
C1754       C  0.80681874  0.10864028  0.30311511    -0.22600
C1755       C  0.81250878  0.14909018  0.30344744    -0.22600
C1756       C  0.91111753  0.09014963  0.18723606    -0.22600
C1757       C  0.91610027  0.13085429  0.18747771    -0.22600
C1758       C  0.83958754  0.99648419  0.25466183    -0.23700
C1759       C  0.85122027  0.99382886  0.23429384    -0.23700
C1760       C  0.85662884  0.24595975  0.25232393    -0.23700
C1761       C  0.86735456  0.24332244  0.23185803    -0.23700
C1762       C  0.82647344  0.05254115  0.27963104    -0.19000
C1763       C  0.84273199  0.19671471  0.27960698    -0.19000
C1764       C  0.89020050  0.18780954  0.20869365    -0.19000
C1765       C  0.87464519  0.04249121  0.20865964    -0.19000
H1766       H  0.79073557  0.09233335  0.31465569     0.13900
H1767       H  0.80143260  0.16993880  0.31518142     0.13900
H1768       H  0.92557782  0.06903469  0.17676641     0.13900
H1769       H  0.93503011  0.14697803  0.17720143     0.13900
H1770       H  0.83357750  0.47122833  0.26447324     0.12200
H1771       H  0.85626146  0.46622582  0.22554871     0.12200
H1772       H  0.85034440  0.27353337  0.26083597     0.12200
H1773       H  0.87123655  0.26852443  0.22168807     0.12200
H1774       H  0.85940082  0.12032302  0.26187448     0.25400
H1775       H  0.85277756  0.11972421  0.22419200     0.25400
O1776       O  0.94520697  0.32108626  0.09564145    -0.80900
O1777       O  0.54181040  0.31512334  0.14517809    -0.80900
O1778       O  0.03349057  0.36743723  0.07774544    -0.80900
O1779       O  0.96499780  0.34138398  0.16358088    -0.80800
O1780       O  0.54493777  0.32021597  0.10093421    -0.81000
O1781       O  0.95102906  0.30638494  0.13652521    -0.80900
O1782       O  0.53280810  0.35347641  0.17309874    -0.80900
O1783       O  0.95467174  0.37200082  0.07519493    -0.80900
C1784       C  0.94001735  0.33794748  0.07838916     1.08800
C1785       C  0.54328378  0.31996833  0.16512374     1.08700
C1786       C  0.54868787  0.33371408  0.08262952     1.08800
C1787       C  0.95144933  0.30981398  0.15596555     1.08700
O1788       O  0.91873815  0.38951486  0.14574142    -0.80900
O1789       O  0.57671180  0.39729275  0.10467027    -0.80900
O1790       O  0.95305018  0.44383106  0.10003130    -0.80900
O1791       O  0.51005529  0.42310197  0.15572652    -0.80900
O1792       O  0.56726126  0.40225018  0.14664081    -0.80900
O1793       O  0.90966599  0.39725189  0.10450127    -0.80900
O1794       O  0.97459532  0.41386721  0.15725913    -0.80800
O1795       O  0.03228026  0.44312794  0.10178931    -0.80900
Co1796     Co  0.93561944  0.35430289  0.12074710     1.51500
Co1797     Co  0.55138835  0.35949097  0.12393560     1.51700
Co1798     Co  0.99368019  0.40522880  0.09086187     1.51600
Co1799     Co  0.00703476  0.36741529  0.14738088     1.51500
O1800       O  0.99120614  0.37653120  0.11909438    -1.42800
C1801       C  0.93757297  0.41486232  0.15678915     1.08800
C1802       C  0.56677244  0.43196208  0.09915504     1.08800
C1803       C  0.91843059  0.43224555  0.09900257     1.08800
C1804       C  0.54605649  0.42858441  0.15609809     1.08800
C1805       C  0.86823106  0.99513954  0.17780405    -0.14100
C1806       C  0.88897586  0.00870748  0.19534033     0.08100
C1807       C  0.92378515  0.48976705  0.20066360    -0.14100
C1808       C  0.93826740  0.45826320  0.18844083    -0.14100
C1809       C  0.91835342  0.44498929  0.17052514     0.08100
C1810       C  0.88284299  0.46324679  0.16541716    -0.14100
H1811       H  0.84111530  0.00949675  0.17363068     0.12100
H1812       H  0.93990633  0.49971448  0.21423907     0.12100
H1813       H  0.96557721  0.44458957  0.19288542     0.12100
H1814       H  0.86720566  0.45379273  0.15159671     0.12100
C1815       C  0.89477460  0.22096673  0.17401163    -0.14100
C1816       C  0.90797927  0.21722267  0.19457068     0.08100
C1817       C  0.93631620  0.24345090  0.20219599    -0.14100
C1818       C  0.94954745  0.27441003  0.18985677    -0.14100
C1819       C  0.93658462  0.27799635  0.16923805     0.08100
C1820       C  0.90946508  0.25076007  0.16130987    -0.14100
H1821       H  0.87277591  0.20116025  0.16793323     0.12100
H1822       H  0.94708649  0.24078202  0.21799531     0.12100
H1823       H  0.97050792  0.29502730  0.19627910     0.12100
H1824       H  0.89891128  0.25316614  0.14546269     0.12100
C1825       C  0.53566093  0.49376540  0.17429161    -0.14100
C1826       C  0.56060935  0.46112259  0.16983011     0.08100
C1827       C  0.59471747  0.45680824  0.18157069    -0.14100
C1828       C  0.60288493  0.48408180  0.19792800    -0.14100
C1829       C  0.57699697  0.01586078  0.20269834     0.08100
C1830       C  0.54367191  0.02062839  0.19049593    -0.14100
H1831       H  0.50899130  0.99771389  0.16564647     0.12100
H1832       H  0.61396524  0.43142617  0.17878276     0.12100
H1833       H  0.62899991  0.48013286  0.20702344     0.12100
H1834       H  0.52340057  0.04496700  0.19378187     0.12100
C1835       C  0.54052603  0.21798565  0.18904384    -0.14100
C1836       C  0.56600751  0.22273773  0.20592202     0.08100
C1837       C  0.58627637  0.25881322  0.20822144    -0.14100
C1838       C  0.57877611  0.29069099  0.19496157    -0.14100
C1839       C  0.55277454  0.28605544  0.17843056     0.08100
C1840       C  0.53492526  0.24905567  0.17500177    -0.14100
H1841       H  0.52460647  0.19049235  0.18692223     0.12100
H1842       H  0.60694087  0.26274504  0.22075807     0.12100
H1843       H  0.59335510  0.31886535  0.19752273     0.06500
H1844       H  0.01509184  0.24492894  0.16209744     0.12100
C1845       C  0.56248258  0.98013827  0.83836797    -0.14100
C1846       C  0.54680639  0.01852747  0.83555854     0.08100
C1847       C  0.54251842  0.53310508  0.81517148    -0.14100
C1848       C  0.55267648  0.50948735  0.79785973    -0.14100
C1849       C  0.56890573  0.47127697  0.80051261     0.08100
C1850       C  0.57424657  0.95702501  0.82096830    -0.14100
H1851       H  0.56566852  0.96817464  0.85389221     0.12100
H1852       H  0.52965834  0.56236593  0.81254902     0.12100
H1853       H  0.54705905  0.52075654  0.78237975     0.12100
H1854       H  0.58652919  0.92745090  0.82340326     0.12100
C1855       C  0.57656742  0.28563455  0.81294486    -0.14100
C1856       C  0.56529749  0.27367853  0.79264705     0.08100
C1857       C  0.04477284  0.23801022  0.79005299    -0.14100
C1858       C  0.03503684  0.21539054  0.80749887    -0.14100
C1859       C  0.54452077  0.22873191  0.82783161     0.08100
C1860       C  0.56554765  0.26387131  0.83039572    -0.14100
H1861       H  0.59243591  0.31308280  0.81534063     0.12100
H1862       H  0.03505506  0.22851325  0.77471132     0.12100
H1863       H  0.01845854  0.18837823  0.80520617     0.12100
H1864       H  0.57312387  0.27462736  0.84586969     0.12100
C1865       C  0.93673073  0.04243267  0.81075151    -0.14100
C1866       C  0.92323950  0.04205723  0.83148803     0.08100
C1867       C  0.89836823  0.01160569  0.83770558    -0.14100
C1868       C  0.88797108  0.48155522  0.82336040    -0.14100
C1869       C  0.90330439  0.48123925  0.80300234     0.08100
C1870       C  0.92799257  0.51170197  0.79694150    -0.14100
H1871       H  0.95625303  0.06521254  0.80539542     0.12100
H1872       H  0.88807976  0.01037655  0.85365208     0.12100
H1873       H  0.86868350  0.45814021  0.82819714     0.12100
H1874       H  0.94042151  0.51172186  0.78140471     0.12100
C1875       C  0.92787694  0.20803790  0.80869328    -0.14100
C1876       C  0.91733111  0.20898220  0.82985035     0.08100
C1877       C  0.89408939  0.24092702  0.83750399    -0.14100
C1878       C  0.88327834  0.27228931  0.82438769    -0.14100
C1879       C  0.89593548  0.27226879  0.80357154     0.08100
C1880       C  0.91796333  0.23972007  0.79581579    -0.14100
H1881       H  0.94599726  0.18407382  0.80237017     0.12100
H1882       H  0.88589515  0.24263749  0.85382390     0.12100
H1883       H  0.86574716  0.29690241  0.83052778     0.12100
H1884       H  0.92776169  0.23907398  0.77974501     0.12100
C1885       C  0.61376413  0.31995702  0.03557946    -0.14100
C1886       C  0.64108950  0.29187983  0.04263014     0.08100
C1887       C  0.63554511  0.27406267  0.06208291    -0.14100
C1888       C  0.60375029  0.28540852  0.07463220    -0.14100
C1889       C  0.57712033  0.31486168  0.06791912     0.08100
C1890       C  0.58224056  0.33136643  0.04804821    -0.14100
H1891       H  0.61730412  0.33364474  0.02048578     0.12100
H1892       H  0.65600668  0.25180143  0.06760779     0.12100
H1893       H  0.60095816  0.27239185  0.08992400     0.12100
H1894       H  0.56261836  0.35429923  0.04239072     0.12100
C1895       C  0.85285830  0.28289777  0.05719846    -0.14100
C1896       C  0.84601369  0.30334107  0.03857594     0.08100
C1897       C  0.87222102  0.33255480  0.03226489    -0.14100
C1898       C  0.90420383  0.34197001  0.04459770    -0.14100
C1899       C  0.91079301  0.32230072  0.06353516     0.08100
C1900       C  0.88502324  0.29222627  0.06956509    -0.14100
H1901       H  0.83326014  0.25984939  0.06215449     0.12100
H1902       H  0.86761583  0.34839297  0.01782666     0.12100
H1903       H  0.92313008  0.36557397  0.03959551     0.12100
H1904       H  0.88889212  0.27693321  0.08421190     0.12100
C1905       C  0.57272908  0.23612786  0.93202178    -0.14100
C1906       C  0.57664924  0.20187296  0.91927546     0.08100
C1907       C  0.61309082  0.18347697  0.91664588    -0.14100
C1908       C  0.64496005  0.19807615  0.92773820    -0.14100
C1909       C  0.64057263  0.23154410  0.94116587     0.08100
C1910       C  0.60456555  0.25123189  0.94262529    -0.14100
H1911       H  0.54477219  0.25073593  0.93407794     0.12100
H1912       H  0.61638691  0.15679095  0.90692978     0.12100
H1913       H  0.67254155  0.18242748  0.92653451     0.12100
H1914       H  0.60076216  0.27718234  0.95282360     0.12100
C1915       C  0.87275056  0.28811496  0.93407476    -0.14100
C1916       C  0.83750940  0.26729276  0.93287930     0.08100
C1917       C  0.83392382  0.23630829  0.91800178    -0.14100
C1918       C  0.86597730  0.22306176  0.90663818    -0.14100
C1919       C  0.90258760  0.23900846  0.91072748     0.08100
C1920       C  0.90554009  0.27341975  0.92336658    -0.14100
H1921       H  0.87603710  0.31256095  0.94522018     0.12100
H1922       H  0.80754336  0.21934621  0.91670929     0.12100
H1923       H  0.86320805  0.19652191  0.89680796     0.12100
H1924       H  0.93358267  0.28597943  0.92681983     0.12100
C1925       C  0.65589116  0.45542475  0.06836787    -0.14100
C1926       C  0.64322259  0.48699860  0.05576829     0.08100
C1927       C  0.60589380  0.50321558  0.05888063    -0.14100
C1928       C  0.58127927  0.48708145  0.07395228    -0.14100
C1929       C  0.59391091  0.45481430  0.08620782     0.08100
C1930       C  0.63180103  0.43988931  0.08351471    -0.14100
H1931       H  0.68446399  0.44223939  0.06621939     0.12100
H1932       H  0.59564809  0.52775466  0.04941612     0.12100
H1933       H  0.55202861  0.49878515  0.07546008     0.12100
H1934       H  0.64243128  0.41488311  0.09253847     0.12100
C1935       C  0.82396081  0.45468248  0.07285799    -0.14100
C1936       C  0.83491912  0.48229474  0.05776813     0.08100
C1937       C  0.87238817  0.49804632  0.05837589    -0.14100
C1938       C  0.89914258  0.48469425  0.07324239    -0.14100
C1939       C  0.88865787  0.45542896  0.08767214     0.08100
C1940       C  0.85032941  0.44179804  0.08778512    -0.14100
H1941       H  0.79529088  0.44195795  0.07260822     0.12100
H1942       H  0.88127426  0.51950791  0.04687157     0.12100
H1943       H  0.92858244  0.49527808  0.07255673     0.12100
H1944       H  0.84133131  0.41908975  0.09859758     0.12100
C1945       C  0.60531242  0.04598227  0.91895540    -0.14100
C1946       C  0.57764963  0.07236556  0.92795345     0.08100
C1947       C  0.58316043  0.08560520  0.94866996    -0.14100
C1948       C  0.61473465  0.07201526  0.96029060    -0.14100
C1949       C  0.64162685  0.04447712  0.95165473     0.08100
C1950       C  0.63691277  0.03197065  0.93074767    -0.14100
H1951       H  0.60181310  0.03515836  0.90305852     0.12100
H1952       H  0.56271910  0.10624980  0.95604180     0.12100
H1953       H  0.61779703  0.58241945  0.97629880     0.12100
H1954       H  0.65702767  0.01053424  0.92375468     0.12100
C1955       C  0.87890905  0.02833283  0.96244118    -0.14100
C1956       C  0.84693708  0.00995463  0.95292277     0.08100
C1957       C  0.84889290  0.50090280  0.93136915    -0.14100
C1958       C  0.88085424  0.51299151  0.91943309    -0.14100
C1959       C  0.91152488  0.03349877  0.92900280     0.08100
C1960       C  0.91075418  0.03963759  0.95069049    -0.14100
H1961       H  0.87841022  0.03602666  0.97892874     0.12100
H1962       H  0.82493137  0.48632287  0.92364236     0.12100
H1963       H  0.88030434  0.50894396  0.90263162     0.12100
H1964       H  0.93359834  0.05622515  0.95834560     0.12100
C1965       C  0.64052332  0.03410365  0.67230846    -0.14100
C1966       C  0.67728226  0.04897007  0.67704446     0.08100
C1967       C  0.69939837  0.03084037  0.69275129    -0.14100
C1968       C  0.68517600  0.49824603  0.70350900    -0.14100
C1969       C  0.64779577  0.48437415  0.69947866     0.08100
C1970       C  0.62550235  0.00247574  0.68379186    -0.14100
H1971       H  0.62314145  0.04762893  0.66018481     0.12100
H1972       H  0.72799892  0.04162834  0.69653948     0.12100
H1973       H  0.70283393  0.48454922  0.71547486     0.12100
H1974       H  0.59650980  0.99220713  0.68054621     0.12100
C1975       C  0.60813929  0.24669048  0.68165351    -0.14100
C1976       C  0.63296145  0.27764175  0.68797819     0.08100
C1977       C  0.67031368  0.27892619  0.67945028    -0.14100
C1978       C  0.68335153  0.24870849  0.66574890    -0.14100
C1979       C  0.65929957  0.21663069  0.66023551     0.08100
C1980       C  0.62116176  0.21646513  0.66779833    -0.14100
H1981       H  0.57916365  0.24524498  0.68801795     0.12100
H1982       H  0.68992005  0.30249512  0.68406945     0.12100
H1983       H  0.71280638  0.24967702  0.66000859     0.12100
H1984       H  0.60218699  0.19190201  0.66391372     0.12100
C1985       C  0.85595757  0.03853813  0.67850927    -0.14100
C1986       C  0.81943858  0.03621837  0.66891137     0.08100
C1987       C  0.79489572  0.00470835  0.67437667    -0.14100
C1988       C  0.80575984  0.97713183  0.68942204    -0.14100
C1989       C  0.84198514  0.47936462  0.69909116     0.08100
C1990       C  0.86721854  0.51017311  0.69343309    -0.14100
H1991       H  0.87536824  0.06261580  0.67481890     0.12100
H1992       H  0.76657895  0.00176750  0.66735818     0.12100
H1993       H  0.78567102  0.45395320  0.69361823     0.12100
H1994       H  0.89535995  0.51245405  0.70073122     0.12100
C1995       C  0.84152121  0.22583922  0.67595040    -0.14100
C1996       C  0.80437410  0.20957506  0.67658232     0.08100
C1997       C  0.77711918  0.22481730  0.69096545    -0.14100
C1998       C  0.78673739  0.25672456  0.70428313    -0.14100
C1999       C  0.82415451  0.27258374  0.70385704     0.08100
C2000       C  0.85160175  0.25658847  0.68980290    -0.14100
H2001       H  0.86286232  0.21429509  0.66493406     0.12100
H2002       H  0.74826395  0.21263214  0.69154928     0.12100
H2003       H  0.76532462  0.26864880  0.71515164     0.12100
H2004       H  0.88070903  0.26819359  0.68949139     0.12100
C2005       C  0.67489439  0.48333213  0.32670500    -0.14100
C2006       C  0.64900719  0.45681082  0.33600089     0.08100
C2007       C  0.60919018  0.46246978  0.33299005    -0.14100
C2008       C  0.59596583  0.49300118  0.31976287    -0.14100
C2009       C  0.62254238  0.01726246  0.30925742     0.08100
C2010       C  0.66207718  0.01192502  0.31282466    -0.14100
H2011       H  0.70550668  0.98129061  0.32972758     0.12100
H2012       H  0.58869701  0.44263687  0.34014142     0.12100
H2013       H  0.56521914  0.49692903  0.31717293     0.12100
H2014       H  0.68310067  0.03022844  0.30496919     0.12100
C2015       C  0.63615423  0.26403514  0.33809416    -0.14100
C2016       C  0.66381643  0.28718820  0.32786074     0.08100
C2017       C  0.66908585  0.28161804  0.30620674    -0.14100
C2018       C  0.64867357  0.25244536  0.29522506    -0.14100
C2019       C  0.62240610  0.22799776  0.30555001     0.08100
C2020       C  0.61566515  0.23448520  0.32700656    -0.14100
H2021       H  0.63112243  0.26807390  0.35468210     0.12100
H2022       H  0.68951043  0.29952658  0.29770459     0.12100
H2023       H  0.65428781  0.24806648  0.27869416     0.12100
H2024       H  0.59533624  0.21600240  0.33521751     0.12100
C2025       C  0.77280864  0.47265803  0.30761901    -0.14100
C2026       C  0.79470117  0.46932916  0.32604407     0.08100
C2027       C  0.82663300  0.49384851  0.32930220    -0.14100
C2028       C  0.83685099  0.02120172  0.31414964    -0.14100
C2029       C  0.81506581  0.02416072  0.29574021     0.08100
C2030       C  0.78248698  0.00049518  0.29275397    -0.14100
H2031       H  0.74876168  0.45300850  0.30442840     0.12100
H2032       H  0.84382868  0.49148500  0.34335803     0.12100
H2033       H  0.86187015  0.03986757  0.31661842     0.12100
H2034       H  0.76533166  0.00281654  0.27866599     0.12100
C2035       C  0.79283120  0.28557597  0.30434168    -0.14100
C2036       C  0.81918410  0.29672827  0.32001225     0.08100
C2037       C  0.85255838  0.27320246  0.32322979    -0.14100
C2038       C  0.86014130  0.23993909  0.31026735    -0.14100
C2039       C  0.83398092  0.22974334  0.29439893     0.08100
C2040       C  0.79992214  0.25204252  0.29183894    -0.14100
H2041       H  0.76638782  0.30252807  0.30183858     0.12100
H2042       H  0.87280177  0.28079075  0.33551370     0.12100
H2043       H  0.88641971  0.22245478  0.31240484     0.12100
H2044       H  0.77939671  0.24399776  0.27976115     0.12100
C2045       C  0.64271922  0.18609775  0.53781098    -0.14100
C2046       C  0.61080691  0.20777322  0.54591308     0.08100
C2047       C  0.61167260  0.22026950  0.56698144    -0.14100
C2048       C  0.64300857  0.20956862  0.57985911    -0.14100
C2049       C  0.67412075  0.18626561  0.57187673     0.08100
C2050       C  0.67390553  0.17563331  0.55054894    -0.14100
H2051       H  0.64299683  0.17620126  0.52162518     0.12100
H2052       H  0.58773995  0.23751653  0.57355962     0.12100
H2053       H  0.64186880  0.21767441  0.59628304     0.12100
H2054       H  0.69711077  0.15744666  0.54386796     0.12100
C2055       C  0.87764717  0.16967112  0.53588114    -0.14100
C2056       C  0.90515354  0.19679810  0.54349802     0.08100
C2057       C  0.90043114  0.21377918  0.56347650    -0.14100
C2058       C  0.86913385  0.20290764  0.57590023    -0.14100
C2059       C  0.84210705  0.17482687  0.56852051     0.08100
C2060       C  0.84642804  0.15878942  0.54825183    -0.14100
H2061       H  0.88066946  0.15656869  0.52037554     0.12100
H2062       H  0.92105887  0.23521678  0.56945573     0.12100
H2063       H  0.86690428  0.21543082  0.59155504     0.12100
H2064       H  0.82635898  0.13688340  0.54217436     0.12100
C2065       C  0.58861180  0.29786651  0.43289798    -0.14100
C2066       C  0.59966878  0.26213731  0.44252035     0.08100
C2067       C  0.63501782  0.24351331  0.43753112    -0.14100
C2068       C  0.65977601  0.26122924  0.42333194    -0.14100
C2069       C  0.64926358  0.29772462  0.41410836     0.08100
C2070       C  0.61320035  0.31551881  0.41871163    -0.14100
H2071       H  0.56121273  0.31237201  0.43670061     0.12100
H2072       H  0.64355845  0.21576315  0.44487364     0.12100
H2073       H  0.68755441  0.24707225  0.42008961     0.12100
H2074       H  0.60454024  0.34378094  0.41193837     0.12100
C2075       C  0.91913261  0.28130042  0.42776947    -0.14100
C2076       C  0.90931122  0.24787005  0.43951170     0.08100
C2077       C  0.87262529  0.23082492  0.43679318    -0.14100
C2078       C  0.84553915  0.24834561  0.42326886    -0.14100
C2079       C  0.85512027  0.28273259  0.41208416     0.08100
C2080       C  0.89269056  0.29811496  0.41404494    -0.14100
H2081       H  0.94699768  0.29534152  0.42976089     0.12100
H2082       H  0.86453455  0.20496268  0.44572211     0.12100
H2083       H  0.81680221  0.23599031  0.42218023     0.12100
H2084       H  0.90121155  0.32468406  0.40580796     0.12100
C2085       C  0.63924924  0.99713427  0.55784325    -0.14100
C2086       C  0.60222188  0.01377822  0.55487950     0.08100
C2087       C  0.58980967  0.04607031  0.56756951    -0.14100
C2088       C  0.61423350  0.06215207  0.58268138    -0.14100
C2089       C  0.65181070  0.04651929  0.58532548     0.08100
C2090       C  0.66392962  0.01340289  0.57299025    -0.14100
H2091       H  0.64917970  0.47210344  0.54820006     0.12100
H2092       H  0.56133064  0.05934689  0.56546538     0.12100
H2093       H  0.60411334  0.08783542  0.59178189     0.12100
H2094       H  0.69290275  0.50105801  0.57449763     0.12100
C2095       C  0.92207810  0.03405288  0.57131627    -0.14100
C2096       C  0.91068553  0.00440257  0.55687876     0.08100
C2097       C  0.87294565  0.98932426  0.55827048    -0.14100
C2098       C  0.84661254  0.00529807  0.57304991    -0.14100
C2099       C  0.85782651  0.03614110  0.58693096     0.08100
C2100       C  0.89631534  0.04918631  0.58629395    -0.14100
H2101       H  0.95076694  0.04661885  0.57057282     0.12100
H2102       H  0.86348856  0.46621996  0.54745052     0.12100
H2103       H  0.81708926  0.99486755  0.57294387     0.12100
H2104       H  0.90608146  0.07296992  0.59661705     0.12100
C2105       C  0.64458775  0.44582720  0.45809138    -0.14100
C2106       C  0.61226164  0.46565289  0.44958009     0.08100
C2107       C  0.61334328  0.47557078  0.42827972    -0.14100
C2108       C  0.64517016  0.46386995  0.41566855    -0.14100
C2109       C  0.67669635  0.44249792  0.42421498     0.08100
C2110       C  0.67635514  0.43493358  0.44572430    -0.14100
H2111       H  0.64483078  0.43761251  0.47438010     0.12100
H2112       H  0.58919409  0.99142204  0.42130658     0.12100
H2113       H  0.64407424  0.46949017  0.39907662     0.12100
H2114       H  0.69983190  0.41824688  0.45284324     0.12100
C2115       C  0.87896736  0.42628169  0.45936802    -0.14100
C2116       C  0.90526979  0.45407768  0.45158807     0.08100
C2117       C  0.89896663  0.46986042  0.43167012    -0.14100
C2118       C  0.86739928  0.45715814  0.41956300    -0.14100
C2119       C  0.84161288  0.42841351  0.42717723     0.08100
C2120       C  0.84758585  0.41366225  0.44737040    -0.14100
H2121       H  0.88308061  0.41389533  0.47474968     0.12100
H2122       H  0.91855645  0.49177482  0.42548333     0.12100
H2123       H  0.86393001  0.46884949  0.40399800     0.12100
H2124       H  0.82867464  0.39127965  0.45371098     0.12100
N2125       N  0.56639367  0.48467015  0.50107699    -0.37300
N2126       N  0.00726614  0.48866095  0.53306080    -0.57900
N2127       N  0.94879748  0.97776951  0.50254943    -0.37300
N2128       N  0.00796431  0.97625233  0.46900498    -0.57900
C2129       C  0.58568157  0.50182622  0.51720588     0.26300
C2130       C  0.58621775  0.99258968  0.48344936     0.26300
C2131       C  0.92768644  0.49318547  0.51872169     0.26200
C2132       C  0.92819703  0.98366145  0.48496656     0.26200
C2133       C  0.53919452  0.48511226  0.54490899     0.34900
C2134       C  0.97687047  0.48197272  0.54567433     0.34900
C2135       C  0.53992114  0.96483189  0.45798908     0.34900
C2136       C  0.97698996  0.96106190  0.45881729     0.34900
C2137       C  0.61790384  0.52132910  0.50969636    -0.22600
C2138       C  0.61835906  0.01527982  0.48837719    -0.22600
C2139       C  0.89347180  0.50958001  0.51117944    -0.22600
C2140       C  0.89357627  0.00303148  0.48988909    -0.22600
C2141       C  0.52924392  0.47500623  0.56510510    -0.23700
C2142       C  0.98959019  0.47283812  0.56557029    -0.23700
C2143       C  0.52911733  0.94235670  0.44062287    -0.23700
C2144       C  0.98924587  0.94009748  0.44111376    -0.23700
C2145       C  0.57582611  0.49811415  0.53853213    -0.19000
C2146       C  0.57829535  0.97557160  0.46355190    -0.19000
C2147       C  0.93794021  0.96742870  0.46512338    -0.19000
C2148       C  0.93836119  0.49102029  0.54005655    -0.19000
H2149       H  0.63928907  0.53756041  0.51864789     0.13900
H2150       H  0.64022261  0.02570885  0.47772340     0.13900
H2151       H  0.87055491  0.52430698  0.52001720     0.13900
H2152       H  0.87063986  0.01120341  0.47921926     0.13900
H2153       H  0.54842655  0.47158179  0.57831789     0.12200
H2154       H  0.97205280  0.46730752  0.57920260     0.12200
H2155       H  0.54784866  0.92863488  0.42893463     0.12200
H2156       H  0.97140410  0.92454735  0.42982318     0.12200
H2157       H  0.54373377  0.46455513  0.50225064     0.25400
H2158       H  0.97365506  0.95988636  0.50350995     0.25400
N2159       N  0.56508648  0.72821280  0.49474663    -0.37300
N2160       N  0.00570648  0.73167941  0.46261409    -0.57900
N2161       N  0.94779826  0.71902790  0.49259043    -0.37300
N2162       N  0.00730987  0.71748386  0.52609091    -0.57900
C2163       C  0.58385576  0.74675662  0.47921738     0.26300
C2164       C  0.58542887  0.73472805  0.51245128     0.26300
C2165       C  0.92635279  0.73434581  0.47683497     0.26200
C2166       C  0.92736839  0.72480424  0.51031202     0.26200
C2167       C  0.53768199  0.73136474  0.45071209     0.34900
C2168       C  0.97568992  0.72601641  0.44955990     0.34900
C2169       C  0.53906959  0.70626292  0.53706418     0.34900
C2170       C  0.97636185  0.70222415  0.53596004     0.34900
C2171       C  0.61636388  0.76558749  0.48717616    -0.22600
C2172       C  0.61751497  0.75765890  0.50818327    -0.22600
C2173       C  0.89199867  0.75025892  0.48474333    -0.22600
C2174       C  0.89248237  0.74383408  0.50589175    -0.22600
C2175       C  0.52821190  0.72437962  0.42994392    -0.23700
C2176       C  0.98873081  0.72078741  0.42922786    -0.23700
C2177       C  0.52819867  0.68395072  0.55409697    -0.23700
C2178       C  0.98841016  0.68147447  0.55342652    -0.23700
C2179       C  0.57367009  0.74469655  0.45790226    -0.19000
C2180       C  0.57735528  0.71718113  0.53184126    -0.19000
C2181       C  0.93745941  0.70873598  0.52979203    -0.19000
C2182       C  0.93704986  0.73325992  0.45553426    -0.19000
H2183       H  0.63753231  0.78252082  0.47867624     0.13900
H2184       H  0.63960076  0.76727507  0.51905276     0.13900
H2185       H  0.86884361  0.76474253  0.47623969     0.13900
H2186       H  0.86960431  0.75183642  0.51679108     0.13900
H2187       H  0.54750432  0.72414910  0.41661931     0.12200
H2188       H  0.97144287  0.71724826  0.41526196     0.12200
H2189       H  0.54685660  0.67062005  0.56569963     0.12200
H2190       H  0.97046993  0.66602397  0.56447697     0.12200
H2191       H  0.54242765  0.70820945  0.49293892     0.25400
H2192       H  0.97279133  0.70137009  0.49123713     0.25400
O2193       O  0.83641435  0.83918229  0.39298320    -0.80900
O2194       O  0.67989538  0.83051423  0.35726007    -0.80900
O2195       O  0.71141639  0.80633444  0.39974861    -0.80900
O2196       O  0.78418270  0.85565737  0.32772175    -0.80800
O2197       O  0.66881947  0.85401969  0.39500153    -0.81000
O2198       O  0.82247442  0.83334586  0.35207351    -0.80900
O2199       O  0.71597159  0.83153668  0.33013816    -0.80900
O2200       O  0.79027087  0.79815507  0.40116394    -0.80900
C2201       C  0.82571988  0.80664736  0.40076733     1.08800
C2202       C  0.68752744  0.81742561  0.33903009     1.08700
C2203       C  0.67737409  0.81968984  0.40180702     1.08800
C2204       C  0.80917527  0.83083941  0.33375718     1.08700
O2205       O  0.81096827  0.92064694  0.35132793    -0.80900
O2206       O  0.70910843  0.92719336  0.39160720    -0.80900
O2207       O  0.79570306  0.87771293  0.41941502    -0.80900
O2208       O  0.69830646  0.90892292  0.33932437    -0.80900
O2209       O  0.65306040  0.90823061  0.36360032    -0.80900
O2210       O  0.80917678  0.92001492  0.39455721    -0.80900
O2211       O  0.75164433  0.92549757  0.34047631    -0.80800
O2212       O  0.71747179  0.88647124  0.41799742    -0.80900
Co2213     Co  0.81350088  0.87750214  0.37296326     1.51500
Co2214     Co  0.69937827  0.88066685  0.37300821     1.51700
Co2215     Co  0.75346978  0.84281402  0.40742250     1.51600
Co2216     Co  0.74227601  0.87112975  0.34667275     1.51500
O2217       O  0.75515119  0.86124312  0.37708255    -1.42800
C2218       C  0.78521516  0.93790306  0.34062494     1.08800
C2219       C  0.70452580  0.91939595  0.41077943     1.08800
C2220       C  0.81259903  0.90912549  0.41327236     1.08800
C2221       C  0.66618933  0.92226410  0.34678260     1.08800
O2222       O  0.81065490  0.67216060  0.60121362    -0.80900
O2223       O  0.65567349  0.65904626  0.63724284    -0.80900
O2224       O  0.71721860  0.63279728  0.57956496    -0.80900
O2225       O  0.77914161  0.64580028  0.66750579    -0.80800
O2226       O  0.70513855  0.67689926  0.60506230    -0.81000
O2227       O  0.79978895  0.68253030  0.64252892    -0.80900
O2228       O  0.71225858  0.67330788  0.65106992    -0.80900
O2229       O  0.79652589  0.62547391  0.57775935    -0.80900
C2230       C  0.81360630  0.65771739  0.58294077     1.08800
C2231       C  0.67594002  0.68146515  0.64896983     1.08700
C2232       C  0.70192666  0.66579318  0.58604395     1.08800
C2233       C  0.79392835  0.67790882  0.66161963     1.08700
O2234       O  0.82479174  0.59743904  0.64910712    -0.80900
O2235       O  0.67002494  0.60260493  0.60595823    -0.80900
O2236       O  0.79358646  0.55097796  0.59921298    -0.80900
O2237       O  0.71594494  0.60636706  0.67509858    -0.80900
O2238       O  0.68961716  0.58591872  0.64573083    -0.80900
O2239       O  0.83962851  0.59330880  0.60700530    -0.80900
O2240       O  0.76881042  0.56702448  0.65038382    -0.80800
O2241       O  0.71392801  0.55635293  0.60062798    -0.80900
Co2242     Co  0.81476029  0.63595885  0.62491780     1.51500
Co2243     Co  0.70180846  0.63396438  0.62602826     1.51700
Co2244     Co  0.75521127  0.59256464  0.59127998     1.51600
Co2245     Co  0.74052326  0.61804002  0.64940913     1.51500
O2246       O  0.75834698  0.62029786  0.61982846    -1.42800
C2247       C  0.80427333  0.56790357  0.65490596     1.08800
C2248       C  0.67945398  0.56854012  0.59862619     1.08800
C2249       C  0.82894781  0.56015149  0.59916606     1.08800
C2250       C  0.69369476  0.58266934  0.66566015     1.08800
N2251       N  0.68171395  0.01586644  0.00256007    -0.37300
N2252       N  0.73911828  0.00341134  0.03412471    -0.57900
N2253       N  0.79804837  0.99960224  0.00322404    -0.37300
N2254       N  0.74120142  0.00992854  0.96995300    -0.57900
C2255       C  0.65991901  0.00100227  0.01817354     0.26300
C2256       C  0.66143371  0.01176865  0.98469669     0.26300
C2257       C  0.81656073  0.98406023  0.01991893     0.26200
C2258       C  0.81716477  0.98665640  0.98595519     0.26200
C2259       C  0.70779607  0.01163279  0.04597197     0.34900
C2260       C  0.77009921  0.00728678  0.04665273     0.34900
C2261       C  0.71235674  0.02899874  0.95959673     0.34900
C2262       C  0.77456535  0.01746735  0.95968607     0.34900
C2263       C  0.62550709  0.98673901  0.00998883    -0.22600
C2264       C  0.62620517  0.99421924  0.98886097    -0.22600
C2265       C  0.84734042  0.96012587  0.01317103    -0.22600
C2266       C  0.84777224  0.96185878  0.99167951    -0.22600
C2267       C  0.71883803  0.02179029  0.06614124    -0.23700
C2268       C  0.75855181  0.01936258  0.06653758    -0.23700
C2269       C  0.72737699  0.54852166  0.94254048    -0.23700
C2270       C  0.76679574  0.54127223  0.94260420    -0.23700
C2271       C  0.67003997  0.00223739  0.03960522    -0.19000
C2272       C  0.67273270  0.02749963  0.96530506    -0.19000
C2273       C  0.81154154  0.00271079  0.96586281    -0.19000
C2274       C  0.80724376  0.99318574  0.04098850    -0.19000
H2275       H  0.60199060  0.97312963  0.01833817     0.13900
H2276       H  0.60340897  0.98766592  0.97780558     0.13900
H2277       H  0.86782712  0.94385174  0.02271483     0.13900
H2278       H  0.86906905  0.94783291  0.98144007     0.13900
H2279       H  0.70012467  0.02822453  0.07936499     0.12200
H2280       H  0.77661536  0.02364491  0.08015468     0.12200
H2281       H  0.71172880  0.56652053  0.93138010     0.12200
H2282       H  0.78727266  0.55295919  0.93155612     0.12200
H2283       H  0.70711631  0.03210282  0.00412260     0.25400
H2284       H  0.77710915  0.02236586  0.00366823     0.25400
N2285       N  0.79911636  0.78278365  0.98749430    -0.37300
N2286       N  0.74350392  0.78236771  0.02195202    -0.57900
N2287       N  0.68464466  0.76362380  0.99186284    -0.37300
N2288       N  0.74027187  0.76039655  0.95811540    -0.57900
C2289       C  0.82187275  0.77828439  0.00447687     0.26300
C2290       C  0.81991896  0.76960853  0.97077723     0.26300
C2291       C  0.66546385  0.75960030  0.01008116     0.26200
C2292       C  0.66501613  0.74269503  0.97717843     0.26200
C2293       C  0.77448687  0.79803248  0.03177932     0.34900
C2294       C  0.71208123  0.79265089  0.03353238     0.34900
C2295       C  0.76799925  0.77134561  0.94459668     0.34900
C2296       C  0.70730772  0.75708101  0.94704442     0.34900
C2297       C  0.85717320  0.76150315  0.99859678    -0.22600
C2298       C  0.85582723  0.75561734  0.97735928    -0.22600
C2299       C  0.63351734  0.73563729  0.00709895    -0.22600
C2300       C  0.63354751  0.72438292  0.98636855    -0.22600
C2301       C  0.76287877  0.81789630  0.04993690    -0.23700
C2302       C  0.72314732  0.81469607  0.05098155    -0.23700
C2303       C  0.75240962  0.77562774  0.92480439    -0.23700
C2304       C  0.71389300  0.76611968  0.92632207    -0.23700
C2305       C  0.81301150  0.79272611  0.02476009    -0.19000
C2306       C  0.80772092  0.77185971  0.94970978    -0.19000
C2307       C  0.67214015  0.74378475  0.95542844    -0.19000
C2308       C  0.67406509  0.78039642  0.02875972    -0.19000
H2309       H  0.88150326  0.75454358  0.00858820     0.13900
H2310       H  0.87883436  0.74254467  0.96791986     0.13900
H2311       H  0.61217104  0.72761587  0.01862406     0.13900
H2312       H  0.61199227  0.70599218  0.97879282     0.13900
H2313       H  0.78106797  0.83317370  0.06116854     0.12200
H2314       H  0.70465209  0.82679559  0.06324476     0.12200
H2315       H  0.76743197  0.78351941  0.91065429     0.12200
H2316       H  0.69322754  0.76564599  0.91364627     0.12200
H2317       H  0.77286281  0.79846533  0.98702485     0.25400
H2318       H  0.70633314  0.78422534  0.98913882     0.25400
O2319       O  0.51331441  0.59768128  0.92701035    -0.80900
O2320       O  0.53331468  0.66853405  0.84597583    -0.80900
O2321       O  0.51252351  0.52866118  0.86799361    -0.80900
O2322       O  0.54012302  0.67665626  0.89091837    -0.80800
O2323       O  0.53446661  0.58186075  0.85115373    -0.81000
O2324       O  0.51272337  0.67942987  0.92181488    -0.80900
O2325       O  0.51023074  0.72464894  0.86032288    -0.80900
O2326       O  0.54002064  0.58208011  0.89686277    -0.80900
C2327       C  0.54208623  0.58486424  0.91654967     1.08800
C2328       C  0.52966454  0.70686138  0.84593437     1.08700
C2329       C  0.53164787  0.54355674  0.85294593     1.08800
C2330       C  0.54187426  0.68433899  0.91019158     1.08700
O2331       O  0.93131619  0.67660939  0.91468436    -0.80900
O2332       O  0.96523833  0.59394271  0.83949961    -0.80900
O2333       O  0.96450952  0.54528155  0.90514547    -0.80900
O2334       O  0.93872122  0.69058288  0.86351812    -0.80900
O2335       O  0.96216693  0.65666387  0.83768655    -0.80900
O2336       O  0.93235847  0.59648722  0.91979698    -0.80900
O2337       O  0.96624854  0.72085620  0.89813849    -0.80800
O2338       O  0.94125225  0.56369229  0.86603692    -0.80900
Co2339     Co  0.97249278  0.63728163  0.91906889     1.51500
Co2340     Co  0.99638445  0.62749313  0.85747741     1.51700
Co2341     Co  0.99005932  0.57536310  0.88160422     1.51600
Co2342     Co  0.98937694  0.68199307  0.87705102     1.51500
O2343       O  0.97335734  0.63043006  0.88768959    -1.42800
C2344       C  0.93557797  0.71148827  0.90780270     1.08800
C2345       C  0.94227129  0.56879662  0.84654479     1.08800
C2346       C  0.93742051  0.55922037  0.91692998     1.08800
C2347       C  0.93844170  0.68281410  0.84434546     1.08800
N2348       N  0.62199315  0.87920664  0.71404088    -0.37300
N2349       N  0.60275957  0.93824844  0.74656918    -0.57900
N2350       N  0.57782176  0.87388382  0.77202029    -0.37300
N2351       N  0.59350354  0.81438171  0.73968092    -0.57900
C2352       C  0.62605628  0.91370998  0.70342915     0.26300
C2353       C  0.62116917  0.84867770  0.69985041     0.26300
C2354       C  0.56159431  0.90601254  0.78182439     0.26200
C2355       C  0.55822208  0.84157140  0.77829766     0.26200
C2356       C  0.62333434  0.96162842  0.73377934     0.34900
C2357       C  0.59925760  0.95833949  0.76500199     0.34900
C2358       C  0.61198335  0.79279558  0.72462425     0.34900
C2359       C  0.58990891  0.79015065  0.75630867     0.34900
C2360       C  0.62800232  0.90487588  0.68219999    -0.22600
C2361       C  0.62458186  0.86399154  0.67994968    -0.22600
C2362       C  0.53048127  0.89417913  0.79381757    -0.22600
C2363       C  0.52844720  0.85329684  0.79164751    -0.22600
C2364       C  0.63230299  0.99725879  0.74407471    -0.23700
C2365       C  0.61761436  0.99484805  0.76394624    -0.23700
C2366       C  0.61967209  0.75435504  0.73161457    -0.23700
C2367       C  0.60589369  0.75278637  0.75178119    -0.23700
C2368       C  0.63163764  0.95225337  0.71256767    -0.19000
C2369       C  0.62104806  0.80722685  0.70453811    -0.19000
C2370       C  0.57094223  0.80180052  0.77504441    -0.19000
C2371       C  0.57724712  0.94470971  0.78204309    -0.19000
H2372       H  0.63231797  0.92544355  0.66956294     0.13900
H2373       H  0.62556654  0.84735125  0.66531972     0.13900
H2374       H  0.01216952  0.91289747  0.80372947     0.13900
H2375       H  0.00851602  0.83410164  0.79967975     0.13900
H2376       H  0.64753255  0.52267025  0.73800071     0.12200
H2377       H  0.61981313  0.51769812  0.77603071     0.12200
H2378       H  0.63423147  0.73015434  0.72320170     0.12200
H2379       H  0.60750201  0.72714480  0.76187254     0.12200
H2380       H  0.62458932  0.87618311  0.73008712     0.25400
H2381       H  0.60454639  0.87312939  0.76446684     0.25400
N2382       N  0.84673232  0.87720483  0.72273927    -0.37300
N2383       N  0.86027875  0.81653052  0.75400601    -0.57900
N2384       N  0.88414352  0.87748645  0.78339877    -0.37300
N2385       N  0.87480899  0.93848400  0.75099055    -0.57900
C2386       C  0.84259976  0.84343081  0.71101375     0.26300
C2387       C  0.85095582  0.90797627  0.70940760     0.26300
C2388       C  0.89719671  0.84440981  0.79328886     0.26200
C2389       C  0.90124528  0.90939878  0.79244794     0.26200
C2390       C  0.84112102  0.79409585  0.73979682     0.34900
C2391       C  0.86316716  0.79421863  0.77134101     0.34900
C2392       C  0.86049970  0.96210491  0.73575015     0.34900
C2393       C  0.87720266  0.96193630  0.76829986     0.34900
C2394       C  0.84362637  0.85302592  0.69002675    -0.22600
C2395       C  0.84927164  0.89359669  0.68902817    -0.22600
C2396       C  0.92304702  0.85550285  0.80882665    -0.22600
C2397       C  0.92546092  0.89664352  0.80836376    -0.22600
C2398       C  0.83209458  0.75726422  0.74813646    -0.23700
C2399       C  0.84573433  0.75751155  0.76816103    -0.23700
C2400       C  0.85445251  0.00076399  0.74328227    -0.23700
C2401       C  0.86469783  0.00060792  0.76392378    -0.23700
C2402       C  0.83541608  0.80470948  0.71877626    -0.19000
C2403       C  0.85259551  0.94908303  0.71513297    -0.19000
C2404       C  0.89305361  0.94974276  0.78759858    -0.19000
C2405       C  0.88454737  0.80491278  0.78925940    -0.19000
H2406       H  0.84004406  0.83314342  0.67670327     0.13900
H2407       H  0.85103829  0.91069920  0.67485541     0.13900
H2408       H  0.93818583  0.83611207  0.81956235     0.13900
H2409       H  0.94278704  0.91506203  0.81868345     0.13900
H2410       H  0.81799790  0.73227439  0.74054673     0.12200
H2411       H  0.84378157  0.73303551  0.77897595     0.12200
H2412       H  0.84299103  0.52624079  0.73494918     0.12200
H2413       H  0.86295868  0.52616937  0.77449398     0.12200
H2414       H  0.84204508  0.87972402  0.73864247     0.25400
H2415       H  0.86154267  0.87900011  0.77285690     0.25400
N2416       N  0.60132066  0.62068218  0.28940761    -0.37300
N2417       N  0.58533611  0.67968406  0.25809207    -0.57900
N2418       N  0.57754839  0.61804694  0.22650944    -0.37300
N2419       N  0.59579602  0.55796399  0.25711008    -0.57900
C2420       C  0.61504492  0.65423141  0.29887997     0.26300
C2421       C  0.61707509  0.58889147  0.29923103     0.26300
C2422       C  0.58048718  0.65120717  0.21476661     0.26200
C2423       C  0.58704235  0.58628300  0.21411881     0.26200
C2424       C  0.58400115  0.70280669  0.27551701     0.34900
C2425       C  0.56814658  0.70102554  0.24294789     0.34900
C2426       C  0.59665459  0.53500472  0.27431831     0.34900
C2427       C  0.58618591  0.53361133  0.24085745     0.34900
C2428       C  0.63945749  0.64363394  0.31504472    -0.22600
C2429       C  0.64004572  0.60255333  0.31560403    -0.22600
C2430       C  0.59225736  0.64036758  0.19473186    -0.22600
C2431       C  0.59611922  0.59931283  0.19429151    -0.22600
C2432       C  0.56526335  0.73879065  0.27163954    -0.23700
C2433       C  0.55445083  0.73737181  0.25102506    -0.23700
C2434       C  0.58794326  0.49572550  0.26886703    -0.23700
C2435       C  0.58094122  0.49495981  0.24773325    -0.23700
C2436       C  0.60486438  0.69403425  0.29371715    -0.19000
C2437       C  0.60994041  0.54808113  0.29419603    -0.19000
C2438       C  0.58444805  0.54570020  0.21978441    -0.19000
C2439       C  0.57074605  0.69058578  0.22156234    -0.19000
H2440       H  0.65492960  0.66326647  0.32560564     0.13900
H2441       H  0.65585846  0.58520201  0.32693090     0.13900
H2442       H  0.59728580  0.65988511  0.18171076     0.13900
H2443       H  0.60443551  0.58104760  0.18087318     0.13900
H2444       H  0.56094933  0.76378499  0.28239375     0.12200
H2445       H  0.53997572  0.76122523  0.24271526     0.12200
H2446       H  0.58748376  0.96998479  0.27888363     0.12200
H2447       H  0.57363381  0.96876913  0.23846241     0.12200
H2448       H  0.57986821  0.61925321  0.27804849     0.25400
H2449       H  0.56520110  0.61675135  0.24131145     0.25400
N2450       N  0.84126642  0.62351370  0.27472112    -0.37300
N2451       N  0.84852463  0.55899232  0.24340711    -0.57900
N2452       N  0.87419788  0.61639584  0.21288236    -0.37300
N2453       N  0.86479305  0.68077537  0.24405298    -0.57900
C2454       C  0.82483959  0.59347937  0.28522543     0.26300
C2455       C  0.83339063  0.65764392  0.28562357     0.26300
C2456       C  0.88551985  0.58174713  0.20322620     0.26200
C2457       C  0.89319149  0.64648106  0.20349109     0.26200
C2458       C  0.83789413  0.53694971  0.25989012     0.34900
C2459       C  0.85711971  0.53268690  0.22779565     0.34900
C2460       C  0.85484045  0.70701393  0.25942657     0.34900
C2461       C  0.87316284  0.70292573  0.22727359     0.34900
C2462       C  0.80678976  0.60861751  0.30311436    -0.22600
C2463       C  0.81247795  0.64906836  0.30344805    -0.22600
C2464       C  0.91113088  0.59014045  0.18724421    -0.22600
C2465       C  0.91611453  0.63084554  0.18748815    -0.22600
C2466       C  0.83950646  0.49647254  0.25464117    -0.23700
C2467       C  0.85115344  0.49382003  0.23427520    -0.23700
C2468       C  0.85659076  0.74594981  0.25232226    -0.23700
C2469       C  0.86733666  0.74331415  0.23185908    -0.23700
C2470       C  0.82641923  0.55252458  0.27961864    -0.19000
C2471       C  0.84267686  0.69670230  0.27960261    -0.19000
C2472       C  0.89019482  0.68780104  0.20869734    -0.19000
C2473       C  0.87462867  0.54248144  0.20865342    -0.19000
H2474       H  0.79071995  0.59230655  0.31465877     0.13900
H2475       H  0.80141428  0.66991306  0.31518729     0.13900
H2476       H  0.92559947  0.56902568  0.17677779     0.13900
H2477       H  0.93505339  0.64697037  0.17721713     0.13900
H2478       H  0.83367633  0.97124170  0.26449836     0.12200
H2479       H  0.85633466  0.96623331  0.22556954     0.12200
H2480       H  0.85030257  0.77352310  0.26083374     0.12200
H2481       H  0.87123060  0.76851722  0.22169129     0.12200
H2482       H  0.85932400  0.62031415  0.26185840     0.25400
H2483       H  0.85275518  0.61971513  0.22418364     0.25400
O2484       O  0.94517796  0.82110008  0.09564536    -0.80900
O2485       O  0.54179251  0.81511284  0.14517571    -0.80900
O2486       O  0.03346733  0.86743815  0.07774514    -0.80900
O2487       O  0.96498620  0.84138322  0.16358424    -0.80800
O2488       O  0.54491567  0.82021110  0.10093054    -0.81000
O2489       O  0.95100325  0.80639090  0.13652841    -0.80900
O2490       O  0.53279937  0.85346464  0.17309765    -0.80900
O2491       O  0.95464649  0.87201307  0.07519836    -0.80900
C2492       C  0.93998525  0.83796334  0.07839395     1.08800
C2493       C  0.54326819  0.81995526  0.16512158     1.08700
C2494       C  0.54866276  0.83371211  0.08262609     1.08800
C2495       C  0.95143179  0.80981569  0.15596902     1.08700
O2496       O  0.91873048  0.88952503  0.14574889    -0.80900
O2497       O  0.57669842  0.89728446  0.10466860    -0.80900
O2498       O  0.95303958  0.94384274  0.10003495    -0.80900
O2499       O  0.51005577  0.92309652  0.15572953    -0.80900
O2500       O  0.56725688  0.90223696  0.14663999    -0.80900
O2501       O  0.90964964  0.89727108  0.10450855    -0.80900
O2502       O  0.97459494  0.91386668  0.15726199    -0.80800
O2503       O  0.03227018  0.94312484  0.10179167    -0.80900
Co2504     Co  0.93560017  0.85431483  0.12075228     1.51500
Co2505     Co  0.55137335  0.85948255  0.12393390     1.51700
Co2506     Co  0.99366337  0.90523344  0.09086428     1.51600
Co2507     Co  0.00702373  0.86741048  0.14738179     1.51500
O2508       O  0.99119118  0.87653274  0.11909643    -1.42800
C2509       C  0.93757270  0.91486823  0.15679531     1.08800
C2510       C  0.56676099  0.93195571  0.09915531     1.08800
C2511       C  0.91841800  0.93226268  0.09900766     1.08800
C2512       C  0.54605771  0.92857468  0.15609837     1.08800
C2513       C  0.86824503  0.49516344  0.17778069    -0.14100
C2514       C  0.88896215  0.50869677  0.19533402     0.08100
C2515       C  0.92382352  0.98981172  0.20065463    -0.14100
C2516       C  0.93830316  0.95830688  0.18843257    -0.14100
C2517       C  0.91836243  0.94499958  0.17053212     0.08100
C2518       C  0.88282743  0.96322280  0.16544050    -0.14100
H2519       H  0.84114970  0.50954759  0.17359413     0.12100
H2520       H  0.93996484  0.99978561  0.21421785     0.12100
H2521       H  0.96563070  0.94465842  0.19286633     0.12100
H2522       H  0.86716730  0.95374085  0.15163281     0.12100
C2523       C  0.89476547  0.72096120  0.17401619    -0.14100
C2524       C  0.90797358  0.71721507  0.19457449     0.08100
C2525       C  0.93631044  0.74344403  0.20219916    -0.14100
C2526       C  0.94953902  0.77440513  0.18985980    -0.14100
C2527       C  0.93657134  0.77799481  0.16924193     0.08100
C2528       C  0.90945106  0.75075808  0.16131475    -0.14100
H2529       H  0.87276645  0.70115448  0.16793837     0.12100
H2530       H  0.94708266  0.74077415  0.21799803     0.12100
H2531       H  0.97050028  0.79502211  0.19628158     0.12100
H2532       H  0.89889305  0.75316615  0.14546849     0.12100
C2533       C  0.53568856  0.99378333  0.17426934    -0.14100
C2534       C  0.56061780  0.96111632  0.16982628     0.08100
C2535       C  0.59470623  0.95678593  0.18158186    -0.14100
C2536       C  0.60287187  0.98406821  0.19793568    -0.14100
C2537       C  0.57699222  0.51584882  0.20270849     0.08100
C2538       C  0.54364599  0.52060092  0.19052170    -0.14100
H2539       H  0.50894948  0.49768467  0.16568011     0.12100
H2540       H  0.61393735  0.93138473  0.17880891     0.12100
H2541       H  0.62896998  0.98010443  0.20704344     0.12100
H2542       H  0.52336232  0.54492210  0.19382131     0.12100
C2543       C  0.54050618  0.71796888  0.18904006    -0.14100
C2544       C  0.56598061  0.72272258  0.20592155     0.08100
C2545       C  0.58624578  0.75879992  0.20822302    -0.14100
C2546       C  0.57874843  0.79067728  0.19496272    -0.14100
C2547       C  0.55275523  0.78604022  0.17842812     0.08100
C2548       C  0.53490937  0.74903898  0.17499709    -0.14100
H2549       H  0.52458953  0.69047430  0.18691630     0.12100
H2550       H  0.60690654  0.76273348  0.22076128     0.12100
H2551       H  0.59332419  0.81885276  0.19752621     0.06500
H2552       H  0.01508076  0.74491161  0.16209053     0.12100
C2553       C  0.56249158  0.48014766  0.83836751    -0.14100
C2554       C  0.54682698  0.51854175  0.83555858     0.08100
C2555       C  0.54248137  0.03308323  0.81517094    -0.14100
C2556       C  0.55263850  0.00946472  0.79785940    -0.14100
C2557       C  0.56888178  0.97126089  0.80051267     0.08100
C2558       C  0.57425837  0.45703573  0.82096811    -0.14100
H2559       H  0.56566485  0.46817833  0.85389124     0.12100
H2560       H  0.52961192  0.06233969  0.81254832     0.12100
H2561       H  0.54701165  0.02072869  0.78237932     0.12100
H2562       H  0.58653100  0.42745729  0.82340303     0.12100
C2563       C  0.57657633  0.78562278  0.81294341    -0.14100
C2564       C  0.56530783  0.77366401  0.79264575     0.08100
C2565       C  0.04477703  0.73799908  0.79005245    -0.14100
C2566       C  0.03503261  0.71538651  0.80749938    -0.14100
C2567       C  0.54451367  0.72873239  0.82783205     0.08100
C2568       C  0.56554773  0.76386712  0.83039521    -0.14100
H2569       H  0.59244850  0.81306904  0.81533816     0.12100
H2570       H  0.03506028  0.72850062  0.77471082     0.12100
H2571       H  0.01845100  0.68837619  0.80520761     0.12100
H2572       H  0.57312291  0.77462518  0.84586896     0.12100
C2573       C  0.93676532  0.54242644  0.81074927    -0.14100
C2574       C  0.92325861  0.54205784  0.83148312     0.08100
C2575       C  0.89837594  0.51161387  0.83769707    -0.14100
C2576       C  0.88796041  0.98154630  0.82336980    -0.14100
C2577       C  0.90328075  0.98123592  0.80300885     0.08100
C2578       C  0.92795755  0.01170657  0.79694472    -0.14100
H2579       H  0.95629750  0.56519996  0.80539626     0.12100
H2580       H  0.88807546  0.51039046  0.85364149     0.12100
H2581       H  0.86868169  0.95812588  0.82820963     0.12100
H2582       H  0.94037773  0.01173150  0.78140596     0.12100
C2583       C  0.92787036  0.70803866  0.80869724    -0.14100
C2584       C  0.91731273  0.70897129  0.82985265     0.08100
C2585       C  0.89405404  0.74090399  0.83750520    -0.14100
C2586       C  0.88323945  0.77226737  0.82438997    -0.14100
C2587       C  0.89591036  0.77226009  0.80357630     0.08100
C2588       C  0.91795373  0.73972214  0.79582129    -0.14100
H2589       H  0.94600246  0.68408366  0.80237472     0.12100
H2590       H  0.88584937  0.74260492  0.85382376     0.12100
H2591       H  0.86569546  0.79687148  0.83052919     0.12100
H2592       H  0.92776216  0.73908573  0.77975229     0.12100
C2593       C  0.61377103  0.81998611  0.03558559    -0.14100
C2594       C  0.64105101  0.79185068  0.04262319     0.08100
C2595       C  0.63546332  0.77398817  0.06206067    -0.14100
C2596       C  0.60367192  0.78534731  0.07460983    -0.14100
C2597       C  0.57708849  0.81485805  0.06791146     0.08100
C2598       C  0.58225060  0.83140778  0.04805385    -0.14100
H2599       H  0.61734543  0.83370995  0.02050351     0.12100
H2600       H  0.65588997  0.75168238  0.06757450     0.12100
H2601       H  0.60084638  0.77229235  0.08989061     0.12100
H2602       H  0.56266611  0.85438509  0.04240739     0.12100
C2603       C  0.85281367  0.78292225  0.05721122    -0.14100
C2604       C  0.84596970  0.80335916  0.03858679     0.08100
C2605       C  0.87217590  0.83257295  0.03227413    -0.14100
C2606       C  0.90415982  0.84199053  0.04460579    -0.14100
C2607       C  0.91075173  0.82232286  0.06354342     0.08100
C2608       C  0.88497975  0.79225271  0.06957648    -0.14100
H2609       H  0.83321616  0.75987453  0.06216881     0.12100
H2610       H  0.86757091  0.84840666  0.01783453     0.12100
H2611       H  0.92308681  0.86559230  0.03960166     0.12100
H2612       H  0.88884972  0.77696212  0.08422392     0.12100
C2613       C  0.57274422  0.73614202  0.93199549    -0.14100
C2614       C  0.57665392  0.70186810  0.91926263     0.08100
C2615       C  0.61308568  0.68344408  0.91664732    -0.14100
C2616       C  0.64495489  0.69803574  0.92774182    -0.14100
C2617       C  0.64057580  0.73152165  0.94115769     0.08100
C2618       C  0.60458087  0.75123620  0.94260226    -0.14100
H2619       H  0.54479410  0.75076985  0.93404057     0.12100
H2620       H  0.61637207  0.65674258  0.90694198     0.12100
H2621       H  0.67252786  0.68236748  0.92655025     0.12100
H2622       H  0.60078569  0.77720002  0.95279209     0.12100
C2623       C  0.87274496  0.78809285  0.93408532    -0.14100
C2624       C  0.83750690  0.76726531  0.93289245     0.08100
C2625       C  0.83392250  0.73627688  0.91801713    -0.14100
C2626       C  0.86597394  0.72303588  0.90665071    -0.14100
C2627       C  0.90258215  0.73899133  0.91073552     0.08100
C2628       C  0.90553314  0.77340342  0.92337409    -0.14100
H2629       H  0.87603005  0.81254139  0.94522934     0.12100
H2630       H  0.80754428  0.71931031  0.91672735     0.12100
H2631       H  0.86320626  0.69649438  0.89682153     0.12100
H2632       H  0.93357458  0.78596892  0.92682408     0.12100
C2633       C  0.65588390  0.95542910  0.06837332    -0.14100
C2634       C  0.64321121  0.98699533  0.05576960     0.08100
C2635       C  0.60587786  0.00320360  0.05887754    -0.14100
C2636       C  0.58126334  0.98706852  0.07394872    -0.14100
C2637       C  0.59389901  0.95480892  0.08620837     0.08100
C2638       C  0.63179304  0.93989231  0.08351970    -0.14100
H2639       H  0.68446037  0.94225046  0.06622838     0.12100
H2640       H  0.59562862  0.02773668  0.04940992     0.12100
H2641       H  0.55200953  0.99876516  0.07545286     0.12100
H2642       H  0.64242603  0.91489194  0.09254688     0.12100
C2643       C  0.82394997  0.95471020  0.07286042    -0.14100
C2644       C  0.83490835  0.98233111  0.05777487     0.08100
C2645       C  0.87237682  0.99808437  0.05838680    -0.14100
C2646       C  0.89913048  0.98472488  0.07325244    -0.14100
C2647       C  0.88864599  0.95545011  0.08767728     0.08100
C2648       C  0.85031776  0.94181782  0.08778636    -0.14100
H2649       H  0.79528088  0.94198387  0.07260759     0.12100
H2650       H  0.88126348  0.01955264  0.04688602     0.12100
H2651       H  0.92856967  0.99531138  0.07256986     0.12100
H2652       H  0.84131883  0.91910287  0.09859477     0.12100
C2653       C  0.60532914  0.54598459  0.91895220    -0.14100
C2654       C  0.57766397  0.57236405  0.92795130     0.08100
C2655       C  0.58317408  0.58560033  0.94866851    -0.14100
C2656       C  0.61474892  0.57201070  0.96028873    -0.14100
C2657       C  0.64164298  0.54447537  0.95165211     0.08100
C2658       C  0.63693035  0.53197291  0.93074420    -0.14100
H2659       H  0.60183096  0.53516339  0.90305477     0.12100
H2660       H  0.56273136  0.60624197  0.95604144     0.12100
H2661       H  0.61778423  0.08242653  0.97630016     0.12100
H2662       H  0.65704660  0.51053890  0.92375036     0.12100
C2663       C  0.87892180  0.52830569  0.96244187    -0.14100
C2664       C  0.84695134  0.50992874  0.95292125     0.08100
C2665       C  0.84887607  0.00092352  0.93137111    -0.14100
C2666       C  0.88083720  0.01300711  0.91943343    -0.14100
C2667       C  0.91153893  0.53348482  0.92900431     0.08100
C2668       C  0.91076649  0.53961744  0.95069252    -0.14100
H2669       H  0.87842129  0.53599438  0.97893004     0.12100
H2670       H  0.82491322  0.98634289  0.92364591     0.12100
H2671       H  0.88028563  0.00895599  0.90263218     0.12100
H2672       H  0.93360878  0.55620499  0.95834929     0.12100
C2673       C  0.64053628  0.53409799  0.67230006    -0.14100
C2674       C  0.67729314  0.54896981  0.67703589     0.08100
C2675       C  0.69940911  0.53084651  0.69274496    -0.14100
C2676       C  0.68516295  0.99823856  0.70351321    -0.14100
C2677       C  0.64778142  0.98437108  0.69948219     0.08100
C2678       C  0.62551686  0.50247243  0.68378606    -0.14100
H2679       H  0.62315423  0.54761797  0.66017490     0.12100
H2680       H  0.72800797  0.54163870  0.69653353     0.12100
H2681       H  0.70282022  0.98453679  0.71547781     0.12100
H2682       H  0.59652536  0.49220060  0.68054055     0.12100
C2683       C  0.60815149  0.74669919  0.68164492    -0.14100
C2684       C  0.63297928  0.77763890  0.68797845     0.08100
C2685       C  0.67033756  0.77891570  0.67945811    -0.14100
C2686       C  0.68337488  0.74870082  0.66575487    -0.14100
C2687       C  0.65931594  0.71663419  0.66023168     0.08100
C2688       C  0.62117308  0.71647734  0.66778740    -0.14100
H2689       H  0.57917111  0.74526044  0.68800362     0.12100
H2690       H  0.68994779  0.80247636  0.68408426     0.12100
H2691       H  0.71283386  0.74966305  0.66002031     0.12100
H2692       H  0.60219256  0.69192326  0.66389520     0.12100
C2693       C  0.85596071  0.53853692  0.67850287    -0.14100
C2694       C  0.81944161  0.53621791  0.66890503     0.08100
C2695       C  0.79489669  0.50471069  0.67437207    -0.14100
C2696       C  0.80575907  0.47713642  0.68941904    -0.14100
C2697       C  0.84198562  0.97936063  0.69909433     0.08100
C2698       C  0.86721711  0.01017215  0.69343807    -0.14100
H2699       H  0.87537310  0.56261229  0.67481115     0.12100
H2700       H  0.76657987  0.50177040  0.66735361     0.12100
H2701       H  0.78567310  0.95394662  0.69362005     0.12100
H2702       H  0.89535802  0.01245395  0.70073668     0.12100
C2703       C  0.84152407  0.72584802  0.67594065    -0.14100
C2704       C  0.80438330  0.70956970  0.67657874     0.08100
C2705       C  0.77713325  0.72479727  0.69096846    -0.14100
C2706       C  0.78674892  0.75670538  0.70428596    -0.14100
C2707       C  0.82416036  0.77257824  0.70385419     0.08100
C2708       C  0.85160363  0.75659642  0.68979376    -0.14100
H2709       H  0.86286140  0.71431540  0.66491904     0.12100
H2710       H  0.74828283  0.71260110  0.69155711     0.12100
H2711       H  0.76533916  0.76861890  0.71515926     0.12100
H2712       H  0.88070687  0.76821156  0.68947773     0.12100
C2713       C  0.67488825  0.98332986  0.32668094    -0.14100
C2714       C  0.64900557  0.95681752  0.33598753     0.08100
C2715       C  0.60918628  0.96248165  0.33298752    -0.14100
C2716       C  0.59595390  0.99300964  0.31976075    -0.14100
C2717       C  0.62256005  0.51726222  0.30926851     0.08100
C2718       C  0.66209235  0.51192970  0.31284705    -0.14100
H2719       H  0.70551006  0.48129635  0.32976065     0.12100
H2720       H  0.58869691  0.94265622  0.34014768     0.12100
H2721       H  0.56520530  0.99694298  0.31717932     0.12100
H2722       H  0.68312124  0.53023666  0.30499809     0.12100
C2723       C  0.63616982  0.76405173  0.33808417    -0.14100
C2724       C  0.66383287  0.78720553  0.32785176     0.08100
C2725       C  0.66910856  0.78162983  0.30619833    -0.14100
C2726       C  0.64870215  0.75245110  0.29521688    -0.14100
C2727       C  0.62243469  0.72800262  0.30554153     0.08100
C2728       C  0.61568697  0.73449627  0.32699698    -0.14100
H2729       H  0.63113202  0.76809461  0.35467135     0.12100
H2730       H  0.68953333  0.79953870  0.29769657     0.12100
H2731       H  0.65432045  0.74806875  0.27868659     0.12100
H2732       H  0.59535689  0.71601433  0.33520760     0.12100
C2733       C  0.77284767  0.97267219  0.30762026    -0.14100
C2734       C  0.79472303  0.96935130  0.32605115     0.08100
C2735       C  0.82664566  0.99387914  0.32931852    -0.14100
C2736       C  0.83682850  0.52117088  0.31413103    -0.14100
C2737       C  0.81502406  0.52413974  0.29572859     0.08100
C2738       C  0.78243791  0.50048171  0.29275103    -0.14100
H2739       H  0.74880883  0.95301532  0.30442373     0.12100
H2740       H  0.84382689  0.99152150  0.34337980     0.12100
H2741       H  0.86185417  0.53983047  0.31659300     0.12100
H2742       H  0.76526802  0.50281003  0.27866854     0.12100
C2743       C  0.79280817  0.78558752  0.30433773    -0.14100
C2744       C  0.81916264  0.79672595  0.32001035     0.08100
C2745       C  0.85252272  0.77317965  0.32323065    -0.14100
C2746       C  0.86009198  0.73991196  0.31026854    -0.14100
C2747       C  0.83393174  0.72973054  0.29439733     0.08100
C2748       C  0.79988456  0.75204885  0.29183553    -0.14100
H2749       H  0.76637553  0.80255587  0.30183191     0.12100
H2750       H  0.87276700  0.78075616  0.33551608     0.12100
H2751       H  0.88636146  0.72241406  0.31240787     0.12100
H2752       H  0.77935872  0.74401679  0.27975569     0.12100
C2753       C  0.64273058  0.68610863  0.53779940    -0.14100
C2754       C  0.61082836  0.70780227  0.54589992     0.08100
C2755       C  0.61170382  0.72031146  0.56696619    -0.14100
C2756       C  0.64303740  0.70960338  0.57984418    -0.14100
C2757       C  0.67413745  0.68627930  0.57186442     0.08100
C2758       C  0.67391419  0.67563581  0.55053783    -0.14100
H2759       H  0.64300090  0.67620275  0.52161507     0.12100
H2760       H  0.58777934  0.73757300  0.57354288     0.12100
H2761       H  0.64190414  0.71772050  0.59626678     0.12100
H2762       H  0.69711004  0.65743413  0.54385832     0.12100
C2763       C  0.87766550  0.66969710  0.53587877    -0.14100
C2764       C  0.90517105  0.69682332  0.54349767     0.08100
C2765       C  0.90044762  0.71379823  0.56347748    -0.14100
C2766       C  0.86915052  0.70292122  0.57590025    -0.14100
C2767       C  0.84212448  0.67484146  0.56851819     0.08100
C2768       C  0.84644650  0.65881038  0.54824836    -0.14100
H2769       H  0.88068802  0.65659935  0.52037214     0.12100
H2770       H  0.92107409  0.73523543  0.56945843     0.12100
H2771       H  0.86692017  0.71543991  0.59155597     0.12100
H2772       H  0.82637804  0.63690570  0.54216894     0.12100
C2773       C  0.58859865  0.79787366  0.43287707    -0.14100
C2774       C  0.59966106  0.76215068  0.44250415     0.08100
C2775       C  0.63501659  0.74353484  0.43752081    -0.14100
C2776       C  0.65977714  0.76125438  0.42332452    -0.14100
C2777       C  0.64926064  0.79774523  0.41409767     0.08100
C2778       C  0.61318991  0.81552968  0.41869329    -0.14100
H2779       H  0.56119453  0.81237300  0.43667518     0.12100
H2780       H  0.64356170  0.71578987  0.44486709     0.12100
H2781       H  0.68756111  0.74710471  0.42008785     0.12100
H2782       H  0.60452638  0.84378773  0.41191673     0.12100
C2783       C  0.91912521  0.78132494  0.42777787    -0.14100
C2784       C  0.90930749  0.74788438  0.43951276     0.08100
C2785       C  0.87262438  0.73083517  0.43679054    -0.14100
C2786       C  0.84553788  0.74835934  0.42326766    -0.14100
C2787       C  0.85511629  0.78275421  0.41208891     0.08100
C2788       C  0.89268281  0.79814397  0.41405547    -0.14100
H2789       H  0.94698802  0.79536902  0.42977316     0.12100
H2790       H  0.86453674  0.70496597  0.44571486     0.12100
H2791       H  0.81680354  0.73599900  0.42217462     0.12100
H2792       H  0.90120117  0.82472040  0.40582403     0.12100
C2793       C  0.63925347  0.49714255  0.55783284    -0.14100
C2794       C  0.60222241  0.51378111  0.55487378     0.08100
C2795       C  0.58980949  0.54606728  0.56756783    -0.14100
C2796       C  0.61423649  0.56214984  0.58267810    -0.14100
C2797       C  0.65181766  0.54652396  0.58531668     0.08100
C2798       C  0.66393691  0.51341193  0.57297825    -0.14100
H2799       H  0.64917471  0.97209100  0.54821321     0.12100
H2800       H  0.56132758  0.55933962  0.56546774     0.12100
H2801       H  0.60411550  0.58782899  0.59178158     0.12100
H2802       H  0.69289282  0.00104423  0.57451369     0.12100
C2803       C  0.92208188  0.53405776  0.57130828    -0.14100
C2804       C  0.91068768  0.50440313  0.55687372     0.08100
C2805       C  0.87294986  0.48932142  0.55826891    -0.14100
C2806       C  0.84661900  0.50529725  0.57304859    -0.14100
C2807       C  0.85783396  0.53614529  0.58692623     0.08100
C2808       C  0.89632164  0.54919303  0.58628637    -0.14100
H2809       H  0.95076979  0.54662535  0.57056207     0.12100
H2810       H  0.86348467  0.96622668  0.54744975     0.12100
H2811       H  0.81709650  0.49486440  0.57294526     0.12100
H2812       H  0.90608831  0.57298022  0.59660706     0.12100
C2813       C  0.64459765  0.94584879  0.45808875    -0.14100
C2814       C  0.61226856  0.96567453  0.44958083     0.08100
C2815       C  0.61334711  0.97560054  0.42828131    -0.14100
C2816       C  0.64517210  0.96390394  0.41566728    -0.14100
C2817       C  0.67669987  0.94252890  0.42421016     0.08100
C2818       C  0.67636355  0.93496109  0.44571926    -0.14100
H2819       H  0.64484401  0.93762838  0.47437663     0.12100
H2820       H  0.58919194  0.49139068  0.42130240     0.12100
H2821       H  0.64407282  0.96952846  0.39907584     0.12100
H2822       H  0.69984215  0.91827360  0.45283599     0.12100
C2823       C  0.87896012  0.92630909  0.45937053    -0.14100
C2824       C  0.90527494  0.95409254  0.45159017     0.08100
C2825       C  0.89898399  0.96986772  0.43166934    -0.14100
C2826       C  0.86741822  0.95716878  0.41955980    -0.14100
C2827       C  0.84162035  0.92843535  0.42717437     0.08100
C2828       C  0.84757980  0.91369354  0.44737064    -0.14100
H2829       H  0.88306310  0.91392843  0.47475423     0.12100
H2830       H  0.91858276  0.99177288  0.42548189     0.12100
H2831       H  0.86395947  0.96885308  0.40399268     0.12100
H2832       H  0.82865921  0.89132016  0.45371193     0.12100
loop_ 
_geom_bond_atom_site_label_1 
_geom_bond_atom_site_label_2 
_geom_bond_distance 
_geom_bond_site_symmetry_2 
_ccdc_geom_bond_type 
N1           H33   1.042       .  S
N1            C5   1.354   1_565  A
N1          C714   1.352       .  A
N2           C10   1.348       .  A
N2         C1425   1.345       .  A
N3           H34   1.042       .  S
N3            C8   1.349       .  A
N3          C715   1.358       .  A
N4           C12   1.355       .  A
N4         C1427   1.357       .  A
C5           C13   1.387       .  A
C5           C21   1.416   1_545  A
C6          N709   1.352       .  A
C6           C22   1.416       .  A
C6           C14   1.387       .  A
C7          N711   1.358       .  A
C7           C15   1.387   1_565  A
C7           C24   1.419       .  A
C8           C23   1.413       .  A
C8           C16   1.386       .  A
C9         N1418   1.345       .  A
C9           C21   1.406       .  A
C9           C17   1.386       .  A
C10          C24   1.410       .  A
C10          C18   1.386       .  A
C11        N1420   1.357       .  A
C11          C19   1.387       .  A
C11          C22   1.423       .  A
C12          C20   1.386       .  A
C12          C23   1.421       .  A
C13         C722   1.378       .  A
C13          H25   1.082       .  S
C14         C721   1.378       .  A
C14          H26   1.082       .  S
C15         C724   1.378       .  A
C15          H27   1.082       .  S
C16         C723   1.378       .  A
C16          H28   1.082       .  S
C17        C1434   1.374   1_455  A
C17          H29   1.082       .  S
C18        C1433   1.374       .  A
C18          H30   1.082       .  S
C19        C1436   1.382   1_455  A
C19          H31   1.082       .  S
C20        C1435   1.382       .  A
C20          H32   1.082       .  S
C21         C670   1.483   1_565  S
C22         C690   1.506       .  S
C23         C700   1.493       .  S
C24         C680   1.499   1_565  S
N35          H67   1.041       .  S
N35          C40   1.352       .  A
N35          C39   1.350       .  A
N36          C44   1.347       .  A
N36        C1459   1.342       .  A
N37          H68   1.042       .  S
N37          C42   1.346       .  A
N37          C41   1.356       .  A
N38          C46   1.352       .  A
N38        C1461   1.356       .  A
C39          C47   1.389       .  A
C39          C55   1.412       .  A
C40          C56   1.411       .  A
C40          C48   1.386       .  A
C41          C49   1.387       .  A
C41          C58   1.413       .  A
C42          C57   1.409       .  A
C42          C50   1.387       .  A
C43        N1452   1.342       .  A
C43          C55   1.403       .  A
C43          C51   1.388       .  A
C44          C58   1.406       .  A
C44          C52   1.386       .  A
C45        N1454   1.356       .  A
C45          C53   1.385       .  A
C45          C56   1.419       .  A
C46          C54   1.387       .  A
C46          C57   1.417       .  A
C47          C48   1.376       .  A
C47          H59   1.082       .  S
C48          H60   1.082       .  S
C49          C50   1.375       .  A
C49          H61   1.082       .  S
C50          H62   1.082       .  S
C51        C1468   1.372   1_455  A
C51          H63   1.083       .  S
C52        C1467   1.372       .  A
C52          H64   1.082       .  S
C53        C1470   1.380   1_455  A
C53          H65   1.082       .  S
C54        C1469   1.380       .  A
C54          H66   1.082       .  S
C55         C650   1.466       .  S
C56         C630   1.500       .  S
C57         C640   1.482       .  S
C58         C660   1.489       .  S
O69          C77   1.262       .  A
O69         Co89   1.984       .  S
O70          C78   1.267       .  A
O70         Co90   2.062       .  S
O71          C79   1.259       .  A
O71         Co91   1.967       .  S
O72          C80   1.255       .  A
O72         Co92   1.948       .  S
O73          C79   1.264       .  A
O73         Co90   1.988       .  S
O74          C80   1.263       .  A
O74         Co89   1.996       .  S
O75          C78   1.238       .  A
O75         Co92   1.920       .  S
O76          C77   1.262       .  A
O76         Co91   1.983       .  S
C77         C663   1.481       .  S
C78         C600   1.484       .  S
C79         C653   1.462       .  S
C80         C620   1.466       .  S
O81          C94   1.263       .  A
O81         Co89   2.016       .  S
O82          C95   1.270       .  A
O82         Co90   1.975       .  S
O83          C96   1.275       .  A
O83         Co91   2.025       .  S
O84          C97   1.280       .  A
O84         Co92   2.023       .  S
O85          C97   1.268       .  A
O85         Co90   1.937       .  S
O86          C96   1.264       .  A
O86         Co89   1.970       .  S
O87          C94   1.237       .  A
O87         Co92   1.896       .  S
O88          C95   1.275       .  A
O88         Co91   2.013       .  S
Co89         O93   2.113       .  S
Co90         O93   2.044       .  S
Co91         O93   2.049       .  S
Co92         O93   2.030       .  S
C94         C610   1.457       .  S
C95         C693   1.490       .  S
C96         C703   1.489       .  S
C97         C590   1.473       .  S
O98         C106   1.263       .  A
O98        Co118   1.960       .  S
O99         C107   1.270       .  A
O99        Co119   1.924       .  S
O100        C108   1.279       .  A
O100       Co120   2.020       .  S
O101        C109   1.257       .  A
O101       Co121   1.997       .  S
O102        C108   1.273       .  A
O102       Co119   1.984       .  S
O103        C109   1.252       .  A
O103       Co118   1.970       .  S
O104        C107   1.289       .  A
O104       Co121   2.077       .  S
O105        C106   1.274       .  A
O105       Co120   2.016       .  S
C106        C643   1.477       .  S
C107        C563   1.478       .  S
C108        C633   1.490       .  S
C109        C580   1.465       .  S
O110        C123   1.282       .  A
O110       Co118   2.056       .  S
O111        C124   1.262       .  A
O111       Co119   1.987       .  S
O112        C125   1.264       .  A
O112       Co120   1.980       .  S
O113        C126   1.259       .  A
O113       Co121   1.900       .  S
O114        C126   1.291       .  A
O114       Co119   2.103       .  S
O115        C125   1.268       .  A
O115       Co118   1.999       .  S
O116        C123   1.261       .  A
O116       Co121   1.954       .  S
O117        C124   1.261       .  A
O117       Co120   1.981       .  S
Co118       O122   2.051       .  S
Co119       O122   2.038       .  S
Co120       O122   2.041       .  S
Co121       O122   1.995       .  S
C123        C570   1.488       .  S
C124        C673   1.477       .  S
C125        C683   1.487       .  S
C126        C550   1.470       .  S
N127        H159   1.042       .  S
N127        C132   1.349   1_554  A
N127        C131   1.356       .  A
N128        C135   1.344       .  A
N128        C136   1.346       .  A
N129        H160   1.042       .  S
N129        C134   1.350   1_554  A
N129        C133   1.354       .  A
N130        C137   1.356       .  A
N130        C138   1.356       .  A
C131        C139   1.388       .  A
C131        C147   1.417       .  A
C132        C148   1.413       .  A
C132        C140   1.386       .  A
C133        C141   1.387       .  A
C133        C150   1.415       .  A
C134        C149   1.415       .  A
C134        C142   1.388       .  A
C135        C147   1.406       .  A
C135        C143   1.386       .  A
C136        C150   1.407       .  A
C136        C144   1.387       .  A
C137        C148   1.419       .  A
C137        C853   1.385       .  A
C138        C149   1.423       .  A
C138        C854   1.387       .  A
C139        C140   1.381   1_554  A
C139        H151   1.082       .  S
C140        H152   1.082       .  S
C141        C142   1.379   1_554  A
C141        H153   1.082       .  S
C142        H154   1.082       .  S
C143        C144   1.374       .  A
C143        H155   1.082       .  S
C144        H156   1.082       .  S
C145        C146   1.381       .  A
C145        C845   1.385       .  A
C145        H157   1.082       .  S
C146        C846   1.387       .  A
C146        H158   1.081       .  S
C147        C510   1.490       .  S
C148       C1241   1.498       .  S
C149       C1248   1.502       .  S
C150        C520   1.486       .  S
N161        H193   1.042       .  S
N161        C166   1.354       .  A
N161        C165   1.352   1_556  A
N162        C169   1.350       .  A
N162        C170   1.352       .  A
N163        H194   1.041       .  S
N163        C168   1.352       .  A
N163        C167   1.351   1_556  A
N164        C171   1.349       .  A
N164        C172   1.348       .  A
C165        C173   1.385   1_554  A
C165        C181   1.411       .  A
C166        C182   1.417       .  A
C166        C174   1.389       .  A
C167        C175   1.384       .  A
C167        C184   1.408       .  A
C168        C183   1.416       .  A
C168        C176   1.390       .  A
C169        C181   1.413       .  A
C169        C177   1.386       .  A
C170        C184   1.414       .  A
C170        C178   1.386       .  A
C171        C179   1.387       .  A
C171        C182   1.412       .  A
C172        C180   1.385       .  A
C172        C183   1.409       .  A
C173        C174   1.373       .  A
C173        H185   1.082   1_556  S
C174        H186   1.082       .  S
C175        C176   1.375   1_554  A
C175        H187   1.082       .  S
C176        H188   1.082       .  S
C177        C178   1.381       .  A
C177        H189   1.082       .  S
C178        H190   1.082       .  S
C179        C180   1.377       .  A
C179        H191   1.082       .  S
C180        H192   1.082       .  S
C181        C480   1.487       .  S
C182        C500   1.494       .  S
C183        C493   1.482       .  S
C184        C470   1.488       .  S
O195        C203   1.265       .  A
O195      Co1631   1.993   1_455  S
O196        C204   1.284       .  A
O196      Co1632   2.031   1_455  S
O197        C205   1.279       .  A
O197      Co1633   1.928   1_455  S
O198        C206   1.259       .  A
O198      Co1634   1.975   1_455  S
O199        C205   1.291       .  A
O199      Co1632   2.036   1_455  S
O200        C206   1.266       .  A
O200      Co1631   1.998   1_455  S
O201        C204   1.275       .  A
O201      Co1634   1.942   1_455  S
O202        C203   1.265       .  A
O202      Co1633   1.999   1_455  S
C203        C530   1.489       .  S
C204        C443   1.475       .  S
C205        C430   1.474       .  S
C206        C490   1.461       .  S
O207        C220   1.262       .  A
O207       Co215   1.947       .  S
O208        C221   1.252       .  A
O208       Co216   1.933       .  S
O209        C222   1.280       .  A
O209       Co217   2.033       .  S
O210        C223   1.252       .  A
O210       Co218   1.974       .  S
O211        C223   1.259       .  A
O211       Co216   1.992       .  S
O212        C222   1.264       .  A
O212       Co215   1.958       .  S
O213        C220   1.272       .  A
O213       Co218   2.016       .  S
O214        C221   1.264       .  A
O214       Co217   2.001       .  S
Co215      O1611   1.993       .  S
Co215      O1616   1.998       .  S
Co215       O219   2.020       .  S
Co216      O1612   2.031       .  S
Co216      O1615   2.036       .  S
Co216       O219   2.093       .  S
Co217      O1613   1.928       .  S
Co217      O1618   1.999       .  S
Co217       O219   1.953       .  S
Co218      O1614   1.975       .  S
Co218      O1617   1.942       .  S
Co218       O219   1.948       .  S
C220        C503   1.465       .  S
C221        C450   1.466       .  S
C222        C543   1.475       .  S
C223        C460   1.472       .  S
N224        H256   1.038       .  S
N224        C229   1.356       .  A
N224        C228   1.355       .  A
N225        C232   1.349       .  A
N225        C233   1.353       .  A
N226        H257   1.042       .  S
N226        C231   1.348       .  A
N226        C230   1.350       .  A
N227        C234   1.350       .  A
N227        C235   1.354       .  A
C228        C236   1.389       .  A
C228        C244   1.421       .  A
C229        C245   1.421       .  A
C229        C237   1.387       .  A
C230        C238   1.386       .  A
C230        C247   1.407       .  A
C231        C246   1.405       .  A
C231        C239   1.386       .  A
C232        C244   1.418       .  A
C232        C240   1.390       .  A
C233        C247   1.415       .  A
C233        C241   1.384       .  A
C234        C242   1.388       .  A
C234        C245   1.417       .  A
C235        C243   1.384       .  A
C235        C246   1.414       .  A
C236        C237   1.377       .  A
C236        H248   1.081       .  S
C237        H249   1.082       .  S
C238        C239   1.372       .  A
C238       H1666   1.082       .  S
C239       H1667   1.082       .  S
C240        C241   1.374       .  A
C240        H960   1.081       .  S
C241        H961   1.082       .  S
C242        C243   1.379       .  A
C242        H254   1.082       .  S
C243        H255   1.082       .  S
C244        C553   1.486       .  S
C245        C560   1.492       .  S
C246        C440   1.493       .  S
C247        C433   1.493       .  S
H250       C1654   1.082       .  S
H251       C1655   1.082       .  S
H252        C948   1.081   1_545  S
H253        C949   1.082   1_545  S
N258        H290   1.034       .  S
N258        C263   1.355       .  A
N258        C262   1.354       .  A
N259        C266   1.350       .  A
N259        C267   1.350       .  A
N260        H291   1.035       .  S
N260        C265   1.349       .  A
N260        C264   1.354       .  A
N261        C268   1.355       .  A
N261        C269   1.351       .  A
C262        C270   1.388       .  A
C262        C278   1.417       .  A
C263        C279   1.417       .  A
C263        C271   1.386       .  A
C264        C272   1.388       .  A
C264        C281   1.415       .  A
C265        C280   1.412       .  A
C265        C273   1.388       .  A
C266        C278   1.411       .  A
C266        C274   1.387       .  A
C267        C281   1.410       .  A
C267        C275   1.385       .  A
C268        C276   1.384       .  A
C268        C279   1.412       .  A
C269        C277   1.389       .  A
C269        C280   1.416       .  A
C270        C271   1.373       .  A
C270        H282   1.081       .  S
C271        H283   1.082       .  S
C272        C273   1.378       .  A
C272        H284   1.082       .  S
C273        H285   1.083       .  S
C274        C275   1.367       .  A
C274        H286   1.081       .  S
C275        H287   1.082       .  S
C276        C277   1.370       .  A
C276        H996   1.082       .  S
C277        H997   1.082       .  S
C278        C583   1.482       .  S
C279        C573   1.495       .  S
C280        C453   1.478       .  S
C281        C463   1.485       .  S
H288        C984   1.082       .  S
H289        C985   1.082       .  S
N292        H324   1.041       .  S
N292        C297   1.351       .  A
N292        C296   1.357       .  A
N293        C300   1.348       .  A
N293        C301   1.347       .  A
N294        H325   1.041       .  S
N294        C299   1.351       .  A
N294        C298   1.353       .  A
N295        C302   1.353       .  A
N295        C303   1.355       .  A
C296        C304   1.384       .  A
C296        C312   1.414       .  A
C297        C313   1.420       .  A
C297        C305   1.391       .  A
C298        C306   1.387       .  A
C298        C315   1.415       .  A
C299        C314   1.412       .  A
C299        C307   1.386       .  A
C300        C312   1.404       .  A
C300        C308   1.383       .  A
C301        C315   1.411       .  A
C301        C309   1.389       .  A
C302        C310   1.389   1_545  A
C302        C313   1.419       .  A
C303        C311   1.384   1_545  A
C303        C314   1.416       .  A
C304        C305   1.372       .  A
C304        H316   1.082       .  S
C305        H317   1.080       .  S
C306        C307   1.375       .  A
C306        H318   1.082       .  S
C307        H319   1.082       .  S
C308        C309   1.373       .  A
C308        H320   1.082       .  S
C309        H321   1.082       .  S
C310        C311   1.376       .  A
C310       H1030   1.081       .  S
C311       H1031   1.082       .  S
C312        C603   1.490       .  S
C313        C593   1.484       .  S
C314        C413   1.493       .  S
C315        C420   1.487       .  S
H322       C1018   1.081       .  S
H323       C1019   1.082       .  S
N326        H358   1.037       .  S
N326        C331   1.351       .  A
N326        C330   1.348       .  A
N327        C334   1.350       .  A
N327        C335   1.351       .  A
N328        H359   1.039       .  S
N328        C333   1.356       .  A
N328        C332   1.356       .  A
N329        C336   1.349       .  A
N329        C337   1.348       .  A
C330        C338   1.389       .  A
C330        C346   1.408       .  A
C331        C347   1.407       .  A
C331        C339   1.387       .  A
C332        C340   1.387       .  A
C332        C349   1.417       .  A
C333        C348   1.416       .  A
C333        C341   1.386       .  A
C334        C346   1.413       .  A
C334        C342   1.388   1_545  A
C335        C349   1.412       .  A
C335        C343   1.386   1_545  A
C336        C344   1.386       .  A
C336        C347   1.408       .  A
C337        C345   1.387       .  A
C337        C348   1.411       .  A
C338        C339   1.367       .  A
C338        H350   1.083       .  S
C339        H351   1.083       .  S
C340        C341   1.372       .  A
C340        H352   1.082       .  S
C341        H353   1.082       .  S
C342        C343   1.366       .  A
C342       H1062   1.082       .  S
C343       H1063   1.082       .  S
C344        C345   1.363       .  A
C344        H356   1.082       .  S
C345        H357   1.082       .  S
C346        C613   1.469       .  S
C347        C623   1.471       .  S
C348        C400   1.484       .  S
C349        C390   1.483       .  S
H354       C1050   1.082       .  S
H355       C1051   1.082       .  S
O360        C368   1.260       .  A
O360       Co380   1.965       .  S
O361        C369   1.287       .  A
O361       Co381   2.057       .  S
O362       C1786   1.279       .  A
O362       Co382   2.027       .  S
O363        C371   1.251       .  A
O363       Co383   2.001       .  S
O364        C370   1.270       .  A
O364       Co381   1.972       .  S
O365        C371   1.249       .  A
O365       Co380   1.973       .  S
O366        C369   1.271       .  A
O366      Co1799   1.934       .  S
O367        C368   1.270       .  A
O367       Co382   2.016       .  S
C368        C483   1.483       .  S
C369        C423   1.462       .  S
C370        C473   1.488       .  S
C370       O1778   1.279       .  A
C371        C403   1.469       .  S
O372        C385   1.280       .  A
O372       Co380   2.051       .  S
O373        C386   1.259       .  A
O373       Co381   1.990       .  S
O374        C387   1.264       .  A
O374       Co382   1.976       .  S
O375        C388   1.261       .  A
O375      Co1799   1.930       .  S
O376        C388   1.282       .  A
O376       Co381   2.101       .  S
O377        C387   1.266       .  A
O377       Co380   1.990       .  S
O378        C385   1.280       .  A
O378       Co383   1.996       .  S
O379       C1802   1.255       .  A
O379       Co382   1.973       .  S
Co380       O384   2.072       .  S
Co381      O1800   2.173   1_455  S
Co382       O384   2.062       .  S
Co383      O1782   1.934       .  S
Co383      O1791   1.930       .  S
Co383       O384   1.921       .  S
O384      Co1797   2.173       .  S
C385        C393   1.477       .  S
C386        C513   1.479       .  S
C386       O1795   1.255       .  A
C387        C523   1.478       .  S
C388        C410   1.481       .  S
C389        C390   1.406   1_565  A
C389       C1102   1.406       .  A
C389        H395   1.083   1_565  S
C390       C1099   1.397   1_545  A
C391        C392   1.389       .  A
C391       C1098   1.397       .  A
C391        H396   1.084       .  S
C392        C393   1.408       .  A
C392        H397   1.083       .  S
C393        C394   1.404       .  A
C394       C1097   1.406       .  A
C394        H398   1.083       .  S
C399        C400   1.401       .  A
C399        C404   1.395       .  A
C399        H405   1.083       .  S
C400        C401   1.406       .  A
C401        C402   1.393       .  A
C401        H406   1.084       .  S
C402        C403   1.402       .  A
C402        H407   1.083       .  S
C403        C404   1.405       .  A
C404        H408   1.083       .  S
C409        C410   1.406       .  A
C409       C1122   1.392       .  A
C409       H1123   1.084       .  S
C410        C411   1.406       .  A
C411        C412   1.409       .  A
C411        H416   1.083       .  S
C412       C1121   1.408       .  A
C412        H417   1.083       .  S
C413        C414   1.402       .  A
C413       C1120   1.408   1_545  A
C414       C1117   1.392   1_545  A
C414        H418   1.084       .  S
H415       C1117   1.084       .  S
C419        C420   1.404       .  A
C419        C424   1.395       .  A
C419        H425   1.083       .  S
C420        C421   1.407       .  A
C421        C422   1.394       .  A
C421        H426   1.083       .  S
C422        C423   1.398       .  A
C422        H427   1.083       .  S
C423        C424   1.402       .  A
C424       H1844   1.083       .  S
H428       C1840   1.083       .  S
C429        C430   1.399   1_565  A
C429        C434   1.403       .  A
C429        H435   1.083       .  S
C430       C1139   1.408       .  A
C431        C432   1.393       .  A
C431       C1138   1.408       .  A
C431        H436   1.083       .  S
C432        C433   1.399       .  A
C432        H437   1.083       .  S
C433       C1142   1.413       .  A
C434       C1141   1.413       .  A
C434        H438   1.083       .  S
C439        C440   1.411       .  A
C439        C444   1.398       .  A
C439        H445   1.083       .  S
C440       C1857   1.402       .  A
C441        C442   1.402       .  A
C441       C1856   1.402       .  A
C441        H446   1.083       .  S
C442       C1859   1.411       .  A
C442        H447   1.083       .  S
C443        C444   1.396       .  A
C443       C1858   1.411       .  A
C444        H448   1.083       .  S
C449        C450   1.408       .  A
C449       C1162   1.381       .  A
C449        H455   1.083       .  S
C450        C451   1.402       .  A
C451       C1160   1.401   1_545  A
C451        H456   1.083       .  S
C452        C453   1.407       .  A
C452       C1159   1.401       .  A
C452        H457   1.083       .  S
C453        C454   1.396       .  A
C454       C1157   1.381       .  A
C454        H458   1.084       .  S
C459        C460   1.403       .  A
C459        C464   1.391       .  A
C459        H465   1.083       .  S
C460        C461   1.408       .  A
C461        C462   1.400       .  A
C461        H466   1.083       .  S
C462        C463   1.403       .  A
C462        H467   1.083       .  S
C463        C464   1.403       .  A
C464        H468   1.083       .  S
C469        C470   1.402       .  A
C469        C474   1.396       .  A
C469        H475   1.084       .  S
C470        C471   1.403       .  A
C471        C472   1.405       .  A
C471        H476   1.083       .  S
C472        C473   1.410       .  A
C472        H477   1.083       .  S
C473        C474   1.407       .  A
C474        H478   1.083       .  S
C479        C480   1.403       .  A
C479        C484   1.402       .  A
C479        H485   1.083       .  S
C480        C481   1.404       .  A
C481        C482   1.396       .  A
C481        H486   1.084       .  S
C482        C483   1.406       .  A
C482        H487   1.083       .  S
C483        C484   1.409       .  A
C484        H488   1.083       .  S
C489        C490   1.400       .  A
C489        C494   1.390       .  A
C489        H495   1.084       .  S
C490        C491   1.403       .  A
C491        C492   1.401       .  A
C491        H496   1.083       .  S
C492        C493   1.406       .  A
C492        H497   1.083       .  S
C493        C494   1.402       .  A
C494        H498   1.083       .  S
C499        C500   1.412       .  A
C499        C504   1.403       .  A
C499        H505   1.083       .  S
C500        C501   1.402       .  A
C501        C502   1.389       .  A
C501        H506   1.082       .  S
C502        C503   1.403       .  A
C502        H507   1.084       .  S
C503        C504   1.400       .  A
C504        H508   1.083       .  S
C509        C510   1.403       .  A
C509        C514   1.389       .  A
C509        H515   1.084       .  S
C510        C511   1.405       .  A
C511        C512   1.405       .  A
C511        H516   1.083       .  S
C512        C513   1.408       .  A
C512        H517   1.083       .  S
C513        C514   1.405       .  A
C514        H518   1.083       .  S
C519        C520   1.402       .  A
C519        C524   1.391       .  A
C519        H525   1.084       .  S
C520        C521   1.405       .  A
C521        C522   1.402       .  A
C521        H526   1.083       .  S
C522        C523   1.406       .  A
C522        H527   1.083       .  S
C523        C524   1.407       .  A
C524        H528   1.083       .  S
C529        C530   1.408       .  A
C529        C534   1.408       .  A
C529        H535   1.083       .  S
C530        C531   1.406       .  A
C531        C532   1.397       .  A
C531        H536   1.083       .  S
C532        C533   1.405       .  A
C532       H1245   1.084       .  S
C533        C534   1.407       .  A
C533        C856   1.498       .  S
C534        H538   1.083       .  S
H537       C1240   1.084       .  S
C539        C540   1.406       .  A
C539        C544   1.393       .  A
C539        H545   1.083       .  S
C540       C1249   1.410       .  A
C540        C857   1.502       .  S
C541        C542   1.410       .  A
C541       C1248   1.410       .  A
C541        H546   1.083       .  S
C542       C1251   1.406       .  A
C542        H547   1.083       .  S
C543        C544   1.402       .  A
C543       C1250   1.406       .  A
C544        H548   1.084       .  S
C549        C550   1.402       .  A
C549        C554   1.401       .  A
C549        H555   1.083       .  S
C550        C551   1.404       .  A
C551       C1260   1.393   1_545  A
C551        H556   1.083       .  S
C552        C553   1.401       .  A
C552       C1259   1.393       .  A
C552        H557   1.084       .  S
C553       C1262   1.406       .  A
C554       C1261   1.406   1_545  A
C554        H558   1.083   1_545  S
C559        C560   1.407       .  A
C559        C564   1.403       .  A
C559        H565   1.083       .  S
C560        C561   1.403       .  A
C561        C562   1.397       .  A
C561        H566   1.083       .  S
C562        C563   1.406       .  A
C562        H567   1.083       .  S
C563        C564   1.404       .  A
C564        H568   1.083       .  S
C569        C570   1.407       .  A
C569       C1282   1.408       .  A
C569        H575   1.083       .  S
C570        C571   1.408       .  A
C571        C572   1.392   1_545  A
C571        H576   1.083       .  S
C572       C1281   1.400       .  A
C572       H1285   1.084       .  S
C573        C574   1.409       .  A
C573       C1280   1.400       .  A
C574       C1277   1.408       .  A
C574        H578   1.083       .  S
H577       C1280   1.084       .  S
C579        C580   1.402       .  A
C579        C584   1.394       .  A
C579        H585   1.083       .  S
C580        C581   1.402       .  A
C581        C582   1.398       .  A
C581        H586   1.083       .  S
C582        C583   1.405       .  A
C582        H587   1.083       .  S
C583        C584   1.402       .  A
C584        H588   1.083       .  S
C589        C590   1.406       .  A
C589       C1302   1.383       .  A
C589       H1303   1.078       .  S
C590        C591   1.401       .  A
C591        C592   1.408       .  A
C591        H596   1.082       .  S
C592       C1301   1.410       .  A
C592        H597   1.083       .  S
C593        C594   1.395       .  A
C593       C1300   1.410   1_545  A
C594       C1297   1.383   1_545  A
C594        H598   1.084       .  S
H595       C1297   1.078       .  S
C599        C600   1.406       .  A
C599        C604   1.406       .  A
C599        H605   1.083       .  S
C600        C601   1.408       .  A
C601        C602   1.393       .  A
C601        H606   1.083       .  S
C602        C603   1.401       .  A
C602        H607   1.084       .  S
C603        C604   1.407       .  A
C604        H608   1.083       .  S
C609        C610   1.408       .  A
C609       C1322   1.384       .  A
C609        H615   1.083       .  S
C610        C611   1.397       .  A
C611       C1320   1.392       .  A
C611        H616   1.083       .  S
C612        C613   1.404       .  A
C612       C1319   1.392   1_545  A
C612        H617   1.083       .  S
C613        C614   1.396       .  A
C614       C1317   1.384   1_545  A
C614        H618   1.084       .  S
C619        C620   1.406       .  A
C619        C624   1.385       .  A
C619        H625   1.082       .  S
C620        C621   1.404       .  A
C621        C622   1.398       .  A
C621        H626   1.083       .  S
C622        C623   1.402       .  A
C622        H627   1.083       .  S
C623        C624   1.396       .  A
C624        H628   1.084       .  S
C629        C630   1.406       .  A
C629        C634   1.397       .  A
C629        H635   1.083       .  S
C630        C631   1.407       .  A
C631        C632   1.408       .  A
C631        H636   1.083       .  S
C632        C633   1.410       .  A
C632        H637   1.083       .  S
C633        C634   1.406       .  A
C634        H638   1.083       .  S
C639        C640   1.405       .  A
C639        C644   1.394       .  A
C639        H645   1.084       .  S
C640        C641   1.400       .  A
C641        C642   1.398       .  A
C641        H646   1.083       .  S
C642        C643   1.409       .  A
C642        H647   1.083       .  S
C643        C644   1.404       .  A
C644        H648   1.083       .  S
C649        C650   1.400       .  A
C649        C654   1.387       .  A
C649        H655   1.084       .  S
C650        C651   1.398       .  A
C651        C652   1.392       .  A
C651        H656   1.083       .  S
C652        C653   1.406       .  A
C652        H657   1.083       .  S
C653        C654   1.403       .  A
C654        H658   1.083       .  S
C659        C660   1.401       .  A
C659        C664   1.388       .  A
C659        H665   1.084       .  S
C660        C661   1.407       .  A
C661        C662   1.405       .  A
C661        H666   1.083       .  S
C662        C663   1.406       .  A
C662        H667   1.083       .  S
C663        C664   1.408       .  A
C664        H668   1.083       .  S
C669        C670   1.403   1_565  A
C669        C674   1.401   1_565  A
C669       H1383   1.083       .  S
C670        C671   1.402       .  A
C671        C672   1.391       .  A
C671        H676   1.084       .  S
C672        C673   1.405       .  A
C672        H677   1.083       .  S
C673        C674   1.408       .  A
C674       H1386   1.083       .  S
H675       C1377   1.083       .  S
H678       C1382   1.083       .  S
C679        C680   1.405       .  A
C679        C684   1.393       .  A
C679        H685   1.083       .  S
C680        C681   1.408   1_545  A
C681        C682   1.407   1_565  A
C681       H1394   1.083       .  S
C682        C683   1.409       .  A
C682        H687   1.083   1_545  S
C683        C684   1.406       .  A
C684        H688   1.083       .  S
H686       C1389   1.083       .  S
C689        C690   1.406       .  A
C689        C694   1.394       .  A
C689        H695   1.083       .  S
C690        C691   1.410       .  A
C691        C692   1.412       .  A
C691       H1404   1.083       .  S
C692        C693   1.410       .  A
C692        H697   1.083       .  S
C693        C694   1.405       .  A
C694        H698   1.083       .  S
H696       C1399   1.083       .  S
C699        C700   1.404       .  A
C699        C704   1.396       .  A
C699        H705   1.083       .  S
C700        C701   1.404       .  A
C701        C702   1.406       .  A
C701        H706   1.083       .  S
C702        C703   1.411       .  A
C702        H707   1.083       .  S
C703        C704   1.406       .  A
C704        H708   1.083       .  S
N709        H741   1.042       .  S
N709        C713   1.354       .  A
N710       C2133   1.345       .  A
N710        C718   1.348       .  A
N711        H742   1.042       .  S
N711        C716   1.349       .  A
N712       C2135   1.357       .  A
N712        C720   1.355       .  A
C713        C721   1.387       .  A
C713        C729   1.416       .  A
C714        C730   1.416       .  A
C714        C722   1.387   1_565  A
C715        C723   1.387       .  A
C715        C732   1.419       .  A
C716        C731   1.413       .  A
C716        C724   1.386   1_565  A
C717       N2126   1.345       .  A
C717        C729   1.406       .  A
C717        C725   1.386       .  A
C718        C732   1.409       .  A
C718        C726   1.386       .  A
C719       N2128   1.357       .  A
C719        C727   1.387       .  A
C719        C730   1.423       .  A
C720        C728   1.386       .  A
C720        C731   1.421       .  A
C721        H733   1.082       .  S
C722        H734   1.082       .  S
C723        H735   1.082       .  S
C724        H736   1.082       .  S
C725       C2142   1.374   1_455  A
C725        H737   1.082       .  S
C726       C2141   1.374       .  A
C726        H738   1.082       .  S
C727       C2144   1.382   1_455  A
C727        H739   1.082       .  S
C728       C2143   1.382       .  A
C728        H740   1.082       .  S
C729       C1378   1.483       .  S
C730       C1398   1.506       .  S
C731       C1408   1.493       .  S
C732       C1388   1.499       .  S
N743        H775   1.041       .  S
N743        C748   1.352       .  A
N743        C747   1.350       .  A
N744       C2167   1.342       .  A
N744        C752   1.347       .  A
N745        H776   1.042       .  S
N745        C750   1.346       .  A
N745        C749   1.356       .  A
N746       C2169   1.356       .  A
N746        C754   1.352       .  A
C747        C755   1.389       .  A
C747        C763   1.412       .  A
C748        C764   1.411       .  A
C748        C756   1.386       .  A
C749        C757   1.387       .  A
C749        C766   1.413       .  A
C750        C765   1.409       .  A
C750        C758   1.387       .  A
C751       N2160   1.342       .  A
C751        C763   1.403       .  A
C751        C759   1.388       .  A
C752        C766   1.406       .  A
C752        C760   1.386       .  A
C753       N2162   1.356       .  A
C753        C761   1.385       .  A
C753        C764   1.419       .  A
C754        C762   1.387       .  A
C754        C765   1.417       .  A
C755        C756   1.376       .  A
C755        H767   1.082       .  S
C756        H768   1.082       .  S
C757        C758   1.375       .  A
C757        H769   1.082       .  S
C758        H770   1.082       .  S
C759       C2176   1.372   1_455  A
C759        H771   1.083       .  S
C760       C2175   1.372       .  A
C760        H772   1.082       .  S
C761       C2178   1.380   1_455  A
C761        H773   1.082       .  S
C762       C2177   1.380       .  A
C762        H774   1.082       .  S
C763       C1358   1.466       .  S
C764       C1338   1.500       .  S
C765       C1348   1.482       .  S
C766       C1368   1.489       .  S
O777        C785   1.262       .  A
O777       Co797   1.984       .  S
O778        C786   1.267       .  A
O778       Co798   2.062       .  S
O779        C787   1.259       .  A
O779       Co799   1.967       .  S
O780        C788   1.255       .  A
O780       Co800   1.948       .  S
O781        C787   1.264       .  A
O781       Co798   1.988       .  S
O782        C788   1.263       .  A
O782       Co797   1.996       .  S
O783        C786   1.238       .  A
O783       Co800   1.920       .  S
O784        C785   1.262       .  A
O784       Co799   1.983       .  S
C785       C1371   1.481       .  S
C786       C1308   1.484       .  S
C787       C1361   1.462       .  S
C788       C1328   1.466       .  S
O789        C802   1.263       .  A
O789       Co797   2.016       .  S
O790        C803   1.270       .  A
O790       Co798   1.975       .  S
O791        C804   1.275       .  A
O791       Co799   2.025       .  S
O792        C805   1.280       .  A
O792       Co800   2.023       .  S
O793        C805   1.268       .  A
O793       Co798   1.937       .  S
O794        C804   1.264       .  A
O794       Co797   1.970       .  S
O795        C802   1.237       .  A
O795       Co800   1.896       .  S
O796        C803   1.275       .  A
O796       Co799   2.012       .  S
Co797       O801   2.113       .  S
Co798       O801   2.044       .  S
Co799       O801   2.049       .  S
Co800       O801   2.030       .  S
C802       C1318   1.456       .  S
C803       C1401   1.490       .  S
C804       C1411   1.489       .  S
C805       C1298   1.473       .  S
O806        C814   1.263       .  A
O806       Co826   1.960       .  S
O807        C815   1.270       .  A
O807       Co827   1.924       .  S
O808        C816   1.279       .  A
O808       Co828   2.020       .  S
O809        C817   1.257       .  A
O809       Co829   1.997       .  S
O810        C816   1.273       .  A
O810       Co827   1.984       .  S
O811        C817   1.252       .  A
O811       Co826   1.970       .  S
O812        C815   1.289       .  A
O812       Co829   2.077       .  S
O813        C814   1.274       .  A
O813       Co828   2.017       .  S
C814       C1351   1.477       .  S
C815       C1271   1.478       .  S
C816       C1341   1.490       .  S
C817       C1288   1.465       .  S
O818        C831   1.282       .  A
O818       Co826   2.056       .  S
O819        C832   1.262       .  A
O819       Co827   1.987       .  S
O820        C833   1.264       .  A
O820       Co828   1.980       .  S
O821        C834   1.259       .  A
O821       Co829   1.900       .  S
O822        C834   1.291       .  A
O822       Co827   2.103       .  S
O823        C833   1.268       .  A
O823       Co826   1.999       .  S
O824        C831   1.261       .  A
O824       Co829   1.954       .  S
O825        C832   1.261       .  A
O825       Co828   1.981       .  S
Co826       O830   2.051       .  S
Co827       O830   2.038       .  S
Co828       O830   2.041       .  S
Co829       O830   1.995       .  S
C831       C1278   1.488       .  S
C832       C1381   1.477       .  S
C833       C1391   1.487       .  S
C834       C1258   1.470       .  S
N835        H867   1.042       .  S
N835        C840   1.349   1_554  A
N835        C839   1.356       .  A
N836        C843   1.344       .  A
N836        C844   1.346       .  A
N837        H868   1.042   1_565  S
N837        C842   1.350   1_554  A
N837        C841   1.354       .  A
N838        C845   1.356       .  A
N838        C846   1.356       .  A
C839        C847   1.388   1_545  A
C839        C855   1.417       .  A
C840        C856   1.413       .  A
C840        C848   1.386   1_545  A
C841        C849   1.387       .  A
C841        C858   1.415       .  A
C842        C857   1.415   1_565  A
C842        C850   1.388       .  A
C843        C855   1.406       .  A
C843        C851   1.386       .  A
C844        C858   1.407   1_545  A
C844        C852   1.387       .  A
C845        C856   1.419       .  A
C846        C857   1.423       .  A
C847        C848   1.381   1_554  A
C847        H859   1.082       .  S
C848        H860   1.082       .  S
C849        C850   1.379   1_554  A
C849        H861   1.082       .  S
C850        H862   1.082       .  S
C851        C852   1.374       .  A
C851        H863   1.082       .  S
C852        H864   1.082       .  S
C853        C854   1.381       .  A
C853        H865   1.082       .  S
C854        H866   1.081       .  S
C855       C1218   1.490   1_545  S
C858       C1228   1.486       .  S
N869        H901   1.042       .  S
N869        C874   1.354       .  A
N869        C873   1.352   1_556  A
N870        C877   1.350       .  A
N870        C878   1.352       .  A
N871        H902   1.041       .  S
N871        C876   1.352       .  A
N871        C875   1.351   1_556  A
N872        C879   1.349       .  A
N872        C880   1.348       .  A
C873        C881   1.385   1_554  A
C873        C889   1.411       .  A
C874        C890   1.417       .  A
C874        C882   1.389       .  A
C875        C883   1.384       .  A
C875        C892   1.408       .  A
C876        C891   1.416       .  A
C876        C884   1.390       .  A
C877        C889   1.413       .  A
C877        C885   1.386       .  A
C878        C892   1.414       .  A
C878        C886   1.386       .  A
C879        C887   1.387       .  A
C879        C890   1.412       .  A
C880        C888   1.385       .  A
C880        C891   1.409       .  A
C881        C882   1.373       .  A
C881        H893   1.082   1_556  S
C882        H894   1.082       .  S
C883        C884   1.375   1_554  A
C883        H895   1.082       .  S
C884        H896   1.082       .  S
C885        C886   1.381       .  A
C885        H897   1.082       .  S
C886        H898   1.082       .  S
C887        C888   1.377       .  A
C887        H899   1.082       .  S
C888        H900   1.082       .  S
C889       C1188   1.487       .  S
C890       C1208   1.494       .  S
C891       C1201   1.482       .  S
C892       C1178   1.488       .  S
O903        C911   1.265       .  A
O903      Co2339   1.993   1_455  S
O904        C912   1.284       .  A
O904      Co2340   2.031   1_455  S
O905        C913   1.279       .  A
O905      Co2341   1.928   1_455  S
O906        C914   1.259       .  A
O906      Co2342   1.974   1_455  S
O907        C913   1.291       .  A
O907      Co2340   2.036   1_455  S
O908        C914   1.266       .  A
O908      Co2339   1.998   1_455  S
O909        C912   1.275       .  A
O909      Co2342   1.942   1_455  S
O910        C911   1.265       .  A
O910      Co2341   1.999   1_455  S
C911       C1238   1.489       .  S
C912       C1151   1.475       .  S
C913       C1138   1.474       .  S
C914       C1198   1.461       .  S
O915        C928   1.262       .  A
O915       Co923   1.947       .  S
O916        C929   1.252       .  A
O916       Co924   1.933       .  S
O917        C930   1.280       .  A
O917       Co925   2.033       .  S
O918        C931   1.252       .  A
O918       Co926   1.974       .  S
O919        C931   1.259       .  A
O919       Co924   1.992       .  S
O920        C930   1.265       .  A
O920       Co923   1.958       .  S
O921        C928   1.272       .  A
O921       Co926   2.016       .  S
O922        C929   1.264       .  A
O922       Co925   2.001       .  S
Co923      O2319   1.993       .  S
Co923      O2324   1.998       .  S
Co923       O927   2.020       .  S
Co924      O2320   2.031       .  S
Co924      O2323   2.036       .  S
Co924       O927   2.093       .  S
Co925      O2321   1.928       .  S
Co925      O2326   1.999       .  S
Co925       O927   1.953       .  S
Co926      O2322   1.974       .  S
Co926      O2325   1.942       .  S
Co926       O927   1.948       .  S
C928       C1211   1.465       .  S
C929       C1158   1.466       .  S
C930       C1251   1.475       .  S
C931       C1168   1.472       .  S
N932        H964   1.038       .  S
N932        C937   1.356       .  A
N932        C936   1.355       .  A
N933        C940   1.349       .  A
N933        C941   1.353       .  A
N934        H965   1.042       .  S
N934        C939   1.348       .  A
N934        C938   1.350       .  A
N935        C942   1.350       .  A
N935        C943   1.354       .  A
C936        C944   1.389       .  A
C936        C952   1.421       .  A
C937        C953   1.421       .  A
C937        C945   1.387       .  A
C938        C946   1.386       .  A
C938        C955   1.407       .  A
C939        C954   1.405       .  A
C939        C947   1.386       .  A
C940        C952   1.418       .  A
C940        C948   1.390       .  A
C941        C955   1.415       .  A
C941        C949   1.384       .  A
C942        C950   1.388       .  A
C942        C953   1.417       .  A
C943        C951   1.384       .  A
C943        C954   1.414       .  A
C944        C945   1.377       .  A
C944        H956   1.081       .  S
C945        H957   1.082       .  S
C946        C947   1.372       .  A
C946       H2374   1.082       .  S
C947       H2375   1.082       .  S
C948        C949   1.374       .  A
C950        C951   1.379       .  A
C950        H962   1.082       .  S
C951        H963   1.082       .  S
C952       C1261   1.486       .  S
C953       C1268   1.492       .  S
C954       C1148   1.493       .  S
C955       C1141   1.493       .  S
H958       C2362   1.082       .  S
H959       C2363   1.082       .  S
N966        H998   1.033       .  S
N966        C971   1.355       .  A
N966        C970   1.354       .  A
N967        C974   1.350       .  A
N967        C975   1.350       .  A
N968        H999   1.035       .  S
N968        C973   1.349       .  A
N968        C972   1.354       .  A
N969        C976   1.355       .  A
N969        C977   1.351       .  A
C970        C978   1.388       .  A
C970        C986   1.417       .  A
C971        C987   1.417       .  A
C971        C979   1.386       .  A
C972        C980   1.388       .  A
C972        C989   1.415       .  A
C973        C988   1.412       .  A
C973        C981   1.388       .  A
C974        C986   1.411       .  A
C974        C982   1.387       .  A
C975        C989   1.410       .  A
C975        C983   1.385       .  A
C976        C984   1.384   1_565  A
C976        C987   1.412       .  A
C977        C985   1.389   1_565  A
C977        C988   1.416       .  A
C978        C979   1.373       .  A
C978        H990   1.081       .  S
C979        H991   1.082       .  S
C980        C981   1.378       .  A
C980        H992   1.082       .  S
C981        H993   1.083       .  S
C982        C983   1.367       .  A
C982        H994   1.081       .  S
C983        H995   1.082       .  S
C984        C985   1.370       .  A
C986       C1291   1.482       .  S
C987       C1281   1.495       .  S
C988       C1161   1.478       .  S
C989       C1171   1.485       .  S
N1000      H1032   1.041       .  S
N1000      C1005   1.351       .  A
N1000      C1004   1.357       .  A
N1001      C1008   1.348       .  A
N1001      C1009   1.347       .  A
N1002      H1033   1.041       .  S
N1002      C1007   1.351       .  A
N1002      C1006   1.353       .  A
N1003      C1010   1.353       .  A
N1003      C1011   1.355       .  A
C1004      C1012   1.384       .  A
C1004      C1020   1.414       .  A
C1005      C1021   1.420       .  A
C1005      C1013   1.391       .  A
C1006      C1014   1.387       .  A
C1006      C1023   1.415       .  A
C1007      C1022   1.412       .  A
C1007      C1015   1.386       .  A
C1008      C1020   1.404       .  A
C1008      C1016   1.383       .  A
C1009      C1023   1.411       .  A
C1009      C1017   1.389       .  A
C1010      C1018   1.389       .  A
C1010      C1021   1.419       .  A
C1011      C1019   1.384       .  A
C1011      C1022   1.416       .  A
C1012      C1013   1.372       .  A
C1012      H1024   1.082       .  S
C1013      H1025   1.080       .  S
C1014      C1015   1.375       .  A
C1014      H1026   1.082       .  S
C1015      H1027   1.083       .  S
C1016      C1017   1.373       .  A
C1016      H1028   1.082       .  S
C1017      H1029   1.082       .  S
C1018      C1019   1.376       .  A
C1020      C1311   1.490       .  S
C1021      C1301   1.484       .  S
C1022      C1121   1.493       .  S
C1023      C1128   1.487       .  S
N1034      H1066   1.037       .  S
N1034      C1039   1.351       .  A
N1034      C1038   1.348       .  A
N1035      C1042   1.350       .  A
N1035      C1043   1.351       .  A
N1036      H1067   1.039       .  S
N1036      C1041   1.356       .  A
N1036      C1040   1.356       .  A
N1037      C1044   1.349       .  A
N1037      C1045   1.348       .  A
C1038      C1046   1.389       .  A
C1038      C1054   1.408       .  A
C1039      C1055   1.407       .  A
C1039      C1047   1.387       .  A
C1040      C1048   1.387       .  A
C1040      C1057   1.417       .  A
C1041      C1056   1.416       .  A
C1041      C1049   1.386       .  A
C1042      C1054   1.414       .  A
C1042      C1050   1.388       .  A
C1043      C1057   1.412       .  A
C1043      C1051   1.386       .  A
C1044      C1052   1.386       .  A
C1044      C1055   1.408       .  A
C1045      C1053   1.387       .  A
C1045      C1056   1.411       .  A
C1046      C1047   1.367       .  A
C1046      H1058   1.083       .  S
C1047      H1059   1.083       .  S
C1048      C1049   1.372       .  A
C1048      H1060   1.082       .  S
C1049      H1061   1.082       .  S
C1050      C1051   1.366       .  A
C1052      C1053   1.363       .  A
C1052      H1064   1.082       .  S
C1053      H1065   1.082       .  S
C1054      C1321   1.469       .  S
C1055      C1331   1.471       .  S
C1056      C1108   1.484       .  S
C1057      C1098   1.483       .  S
O1068      C1076   1.260       .  A
O1068     Co1088   1.965       .  S
O1069      C1077   1.287       .  A
O1069     Co1089   2.057       .  S
O1070      C2494   1.279       .  A
O1070     Co1090   2.027       .  S
O1071      C1079   1.251       .  A
O1071     Co1091   2.001       .  S
O1072      C1078   1.270       .  A
O1072     Co1089   1.972       .  S
O1073      C1079   1.249       .  A
O1073     Co1088   1.973       .  S
O1074      C1077   1.271       .  A
O1074     Co2507   1.934       .  S
O1075      C1076   1.270       .  A
O1075     Co1090   2.016       .  S
C1076      C1191   1.483       .  S
C1077      C1131   1.462       .  S
C1078      C1181   1.488       .  S
C1078      O2486   1.279       .  A
C1079      C1111   1.469       .  S
O1080      C1093   1.280       .  A
O1080     Co1088   2.051       .  S
O1081      C1094   1.259       .  A
O1081     Co1089   1.990       .  S
O1082      C1095   1.264       .  A
O1082     Co1090   1.976       .  S
O1083      C1096   1.261       .  A
O1083     Co2507   1.931       .  S
O1084      C1096   1.282       .  A
O1084     Co1089   2.101       .  S
O1085      C1095   1.266       .  A
O1085     Co1088   1.990       .  S
O1086      C1093   1.280       .  A
O1086     Co1091   1.996       .  S
O1087      C2510   1.255       .  A
O1087     Co1090   1.973       .  S
Co1088     O1092   2.072       .  S
Co1089     O2508   2.173   1_455  S
Co1090     O1092   2.062       .  S
Co1091     O2490   1.934       .  S
Co1091     O2499   1.931       .  S
Co1091     O1092   1.921       .  S
O1092     Co2505   2.173       .  S
C1093      C1101   1.477       .  S
C1094      C1221   1.479       .  S
C1094      O2503   1.255       .  A
C1095      C1231   1.478       .  S
C1096      C1118   1.481       .  S
C1097      C1098   1.406       .  A
C1097      H1103   1.083       .  S
C1099      C1100   1.389       .  A
C1099      H1104   1.084       .  S
C1100      C1101   1.408       .  A
C1100      H1105   1.083       .  S
C1101      C1102   1.404       .  A
C1102      H1106   1.083       .  S
C1107      C1108   1.401       .  A
C1107      C1112   1.395       .  A
C1107      H1113   1.083       .  S
C1108      C1109   1.406       .  A
C1109      C1110   1.393       .  A
C1109      H1114   1.084       .  S
C1110      C1111   1.402       .  A
C1110      H1115   1.083       .  S
C1111      C1112   1.405       .  A
C1112      H1116   1.083       .  S
C1117      C1118   1.406       .  A
C1118      C1119   1.406       .  A
C1119      C1120   1.409       .  A
C1119      H1124   1.083       .  S
C1120      H1125   1.083       .  S
C1121      C1122   1.402       .  A
C1122      H1126   1.084       .  S
C1127      C1128   1.404       .  A
C1127      C1132   1.395       .  A
C1127      H1133   1.083       .  S
C1128      C1129   1.407       .  A
C1129      C1130   1.394       .  A
C1129      H1134   1.083       .  S
C1130      C1131   1.398       .  A
C1130      H1135   1.083       .  S
C1131      C1132   1.402       .  A
C1132      H2552   1.083       .  S
H1136      C2548   1.083       .  S
C1137      C1138   1.399       .  A
C1137      C1142   1.402       .  A
C1137      H1143   1.083       .  S
C1139      C1140   1.393       .  A
C1139      H1144   1.083       .  S
C1140      C1141   1.399   1_545  A
C1140      H1145   1.083       .  S
C1142      H1146   1.083       .  S
C1147      C1148   1.411       .  A
C1147      C1152   1.398       .  A
C1147      H1153   1.083       .  S
C1148      C2565   1.402       .  A
C1149      C2564   1.402       .  A
C1149      C1150   1.402       .  A
C1149      H1154   1.083       .  S
C1150      C2567   1.411       .  A
C1150      H1155   1.083       .  S
C1151      C2566   1.411       .  A
C1151      C1152   1.396       .  A
C1152      H1156   1.083       .  S
C1157      C1158   1.408       .  A
C1157      H1163   1.083       .  S
C1158      C1159   1.402       .  A
C1159      H1164   1.083       .  S
C1160      C1161   1.407       .  A
C1160      H1165   1.083       .  S
C1161      C1162   1.396   1_565  A
C1162      H1166   1.084       .  S
C1167      C1168   1.403       .  A
C1167      C1172   1.391       .  A
C1167      H1173   1.083       .  S
C1168      C1169   1.408       .  A
C1169      C1170   1.400       .  A
C1169      H1174   1.083       .  S
C1170      C1171   1.403       .  A
C1170      H1175   1.083       .  S
C1171      C1172   1.403       .  A
C1172      H1176   1.083       .  S
C1177      C1178   1.402       .  A
C1177      C1182   1.396       .  A
C1177      H1183   1.084       .  S
C1178      C1179   1.403       .  A
C1179      C1180   1.405       .  A
C1179      H1184   1.083       .  S
C1180      C1181   1.410       .  A
C1180      H1185   1.083       .  S
C1181      C1182   1.407       .  A
C1182      H1186   1.083       .  S
C1187      C1188   1.403       .  A
C1187      C1192   1.402       .  A
C1187      H1193   1.083       .  S
C1188      C1189   1.404       .  A
C1189      C1190   1.396       .  A
C1189      H1194   1.084       .  S
C1190      C1191   1.406       .  A
C1190      H1195   1.083       .  S
C1191      C1192   1.409       .  A
C1192      H1196   1.083       .  S
C1197      C1198   1.400       .  A
C1197      C1202   1.390       .  A
C1197      H1203   1.084       .  S
C1198      C1199   1.403       .  A
C1199      C1200   1.401       .  A
C1199      H1204   1.083       .  S
C1200      C1201   1.406       .  A
C1200      H1205   1.083       .  S
C1201      C1202   1.402       .  A
C1202      H1206   1.083       .  S
C1207      C1208   1.412       .  A
C1207      C1212   1.403       .  A
C1207      H1213   1.083       .  S
C1208      C1209   1.402       .  A
C1209      C1210   1.389       .  A
C1209      H1214   1.082       .  S
C1210      C1211   1.403       .  A
C1210      H1215   1.084       .  S
C1211      C1212   1.400       .  A
C1212      H1216   1.083       .  S
C1217      C1218   1.403       .  A
C1217      C1222   1.389       .  A
C1217      H1223   1.084       .  S
C1218      C1219   1.405   1_565  A
C1219      C1220   1.405   1_545  A
C1219      H1224   1.083       .  S
C1220      C1221   1.408       .  A
C1220      H1225   1.083       .  S
C1221      C1222   1.405       .  A
C1222      H1226   1.083       .  S
C1227      C1228   1.402       .  A
C1227      C1232   1.391       .  A
C1227      H1233   1.084       .  S
C1228      C1229   1.405       .  A
C1229      C1230   1.402       .  A
C1229      H1234   1.083   1_565  S
C1230      C1231   1.406       .  A
C1230      H1235   1.083       .  S
C1231      C1232   1.407       .  A
C1232      H1236   1.083       .  S
C1237      C1238   1.408       .  A
C1237      C1242   1.408       .  A
C1237      H1243   1.083       .  S
C1238      C1239   1.406       .  A
C1239      C1240   1.397       .  A
C1239      H1244   1.083       .  S
C1240      C1241   1.405       .  A
C1241      C1242   1.407       .  A
C1242      H1246   1.083       .  S
C1247      C1248   1.406       .  A
C1247      C1252   1.393       .  A
C1247      H1253   1.083       .  S
C1249      C1250   1.410       .  A
C1249      H1254   1.083   1_545  S
C1250      H1255   1.083       .  S
C1251      C1252   1.402       .  A
C1252      H1256   1.084       .  S
C1257      C1258   1.402       .  A
C1257      C1262   1.401       .  A
C1257      H1263   1.083       .  S
C1258      C1259   1.404       .  A
C1259      H1264   1.083       .  S
C1260      C1261   1.401       .  A
C1260      H1265   1.084       .  S
C1262      H1266   1.083       .  S
C1267      C1268   1.407       .  A
C1267      C1272   1.403       .  A
C1267      H1273   1.083       .  S
C1268      C1269   1.403       .  A
C1269      C1270   1.397       .  A
C1269      H1274   1.083       .  S
C1270      C1271   1.406       .  A
C1270      H1275   1.083       .  S
C1271      C1272   1.404       .  A
C1272      H1276   1.083       .  S
C1277      C1278   1.407       .  A
C1277      H1283   1.083       .  S
C1278      C1279   1.408       .  A
C1279      C1280   1.392       .  A
C1279      H1284   1.083       .  S
C1281      C1282   1.409   1_565  A
C1282      H1286   1.083       .  S
C1287      C1288   1.402       .  A
C1287      C1292   1.394       .  A
C1287      H1293   1.083       .  S
C1288      C1289   1.402       .  A
C1289      C1290   1.398       .  A
C1289      H1294   1.083       .  S
C1290      C1291   1.405       .  A
C1290      H1295   1.083       .  S
C1291      C1292   1.402       .  A
C1292      H1296   1.083       .  S
C1297      C1298   1.406       .  A
C1298      C1299   1.401       .  A
C1299      C1300   1.408       .  A
C1299      H1304   1.082       .  S
C1300      H1305   1.083       .  S
C1301      C1302   1.395       .  A
C1302      H1306   1.084       .  S
C1307      C1308   1.406       .  A
C1307      C1312   1.406       .  A
C1307      H1313   1.083       .  S
C1308      C1309   1.408       .  A
C1309      C1310   1.393       .  A
C1309      H1314   1.083       .  S
C1310      C1311   1.401       .  A
C1310      H1315   1.084       .  S
C1311      C1312   1.407       .  A
C1312      H1316   1.083       .  S
C1317      C1318   1.408       .  A
C1317      H1323   1.083       .  S
C1318      C1319   1.397       .  A
C1319      H1324   1.083       .  S
C1320      C1321   1.404       .  A
C1320      H1325   1.083       .  S
C1321      C1322   1.396       .  A
C1322      H1326   1.084       .  S
C1327      C1328   1.406       .  A
C1327      C1332   1.385       .  A
C1327      H1333   1.082       .  S
C1328      C1329   1.404       .  A
C1329      C1330   1.398       .  A
C1329      H1334   1.083       .  S
C1330      C1331   1.402       .  A
C1330      H1335   1.083       .  S
C1331      C1332   1.396       .  A
C1332      H1336   1.084       .  S
C1337      C1338   1.406       .  A
C1337      C1342   1.397       .  A
C1337      H1343   1.083       .  S
C1338      C1339   1.407       .  A
C1339      C1340   1.408       .  A
C1339      H1344   1.083       .  S
C1340      C1341   1.410       .  A
C1340      H1345   1.083       .  S
C1341      C1342   1.406       .  A
C1342      H1346   1.083       .  S
C1347      C1348   1.405       .  A
C1347      C1352   1.394       .  A
C1347      H1353   1.084       .  S
C1348      C1349   1.400       .  A
C1349      C1350   1.398       .  A
C1349      H1354   1.083       .  S
C1350      C1351   1.409       .  A
C1350      H1355   1.083       .  S
C1351      C1352   1.404       .  A
C1352      H1356   1.083       .  S
C1357      C1358   1.400       .  A
C1357      C1362   1.387       .  A
C1357      H1363   1.084       .  S
C1358      C1359   1.398       .  A
C1359      C1360   1.392       .  A
C1359      H1364   1.083       .  S
C1360      C1361   1.406       .  A
C1360      H1365   1.083       .  S
C1361      C1362   1.403       .  A
C1362      H1366   1.083       .  S
C1367      C1368   1.401       .  A
C1367      C1372   1.388       .  A
C1367      H1373   1.084       .  S
C1368      C1369   1.407       .  A
C1369      C1370   1.405       .  A
C1369      H1374   1.083       .  S
C1370      C1371   1.406       .  A
C1370      H1375   1.083       .  S
C1371      C1372   1.408       .  A
C1372      H1376   1.083       .  S
C1377      C1378   1.403       .  A
C1377      C1382   1.401       .  A
C1378      C1379   1.402       .  A
C1379      C1380   1.391       .  A
C1379      H1384   1.084       .  S
C1380      C1381   1.405       .  A
C1380      H1385   1.083       .  S
C1381      C1382   1.408       .  A
C1387      C1388   1.405       .  A
C1387      C1392   1.393       .  A
C1387      H1393   1.083       .  S
C1388      C1389   1.408       .  A
C1389      C1390   1.407       .  A
C1390      C1391   1.409       .  A
C1390      H1395   1.083       .  S
C1391      C1392   1.406       .  A
C1392      H1396   1.083       .  S
C1397      C1398   1.406       .  A
C1397      C1402   1.394       .  A
C1397      H1403   1.083       .  S
C1398      C1399   1.410       .  A
C1399      C1400   1.412       .  A
C1400      C1401   1.410       .  A
C1400      H1405   1.083       .  S
C1401      C1402   1.405       .  A
C1402      H1406   1.083       .  S
C1407      C1408   1.404       .  A
C1407      C1412   1.396       .  A
C1407      H1413   1.083       .  S
C1408      C1409   1.404       .  A
C1409      C1410   1.406       .  A
C1409      H1414   1.083       .  S
C1410      C1411   1.411       .  A
C1410      H1415   1.083       .  S
C1411      C1412   1.406       .  A
C1412      H1416   1.083       .  S
N1417      H1449   1.042       .  S
N1417      C2130   1.352       .  A
N1417      C1421   1.354   1_565  A
N1418      C1426   1.348   1_455  A
N1419      H1450   1.042       .  S
N1419      C1424   1.349       .  A
N1419      C2131   1.358       .  A
N1420      C1428   1.355   1_455  A
C1421      C1429   1.387       .  A
C1421      C1437   1.416   1_545  A
C1422      N2125   1.352       .  A
C1422      C1438   1.416       .  A
C1422      C1430   1.387       .  A
C1423      N2127   1.358       .  A
C1423      C1431   1.387   1_565  A
C1423      C1440   1.419       .  A
C1424      C1439   1.413       .  A
C1424      C1432   1.386       .  A
C1425      C1437   1.406       .  A
C1425      C1433   1.386       .  A
C1426      C1440   1.410       .  A
C1426      C1434   1.386       .  A
C1427      C1435   1.387       .  A
C1427      C1438   1.423       .  A
C1428      C1436   1.386       .  A
C1428      C1439   1.421       .  A
C1429      C2138   1.378       .  A
C1429      H1441   1.082       .  S
C1430      C2137   1.378       .  A
C1430      H1442   1.082       .  S
C1431      C2140   1.378       .  A
C1431      H1443   1.082       .  S
C1432      C2139   1.378       .  A
C1432      H1444   1.082       .  S
C1433      H1445   1.082       .  S
C1434      H1446   1.082       .  S
C1435      H1447   1.082       .  S
C1436      H1448   1.082       .  S
C1437      C2086   1.483   1_565  S
C1438      C2106   1.506       .  S
C1439      C2116   1.493       .  S
C1440      C2096   1.499   1_565  S
N1451      H1483   1.041       .  S
N1451      C1456   1.352       .  A
N1451      C1455   1.350       .  A
N1452      C1460   1.347   1_455  A
N1453      H1484   1.042       .  S
N1453      C1458   1.346       .  A
N1453      C1457   1.356       .  A
N1454      C1462   1.352   1_455  A
C1455      C1463   1.389       .  A
C1455      C1471   1.412       .  A
C1456      C1472   1.411       .  A
C1456      C1464   1.386       .  A
C1457      C1465   1.387       .  A
C1457      C1474   1.413       .  A
C1458      C1473   1.409       .  A
C1458      C1466   1.387       .  A
C1459      C1471   1.403       .  A
C1459      C1467   1.388       .  A
C1460      C1474   1.406       .  A
C1460      C1468   1.386       .  A
C1461      C1469   1.385       .  A
C1461      C1472   1.419       .  A
C1462      C1470   1.387       .  A
C1462      C1473   1.417       .  A
C1463      C1464   1.376       .  A
C1463      H1475   1.082       .  S
C1464      H1476   1.082       .  S
C1465      C1466   1.375       .  A
C1465      H1477   1.082       .  S
C1466      H1478   1.082       .  S
C1467      H1479   1.083       .  S
C1468      H1480   1.082       .  S
C1469      H1481   1.082       .  S
C1470      H1482   1.082       .  S
C1471      C2066   1.466       .  S
C1472      C2046   1.500       .  S
C1473      C2056   1.482       .  S
C1474      C2076   1.489       .  S
O1485      C1493   1.262       .  A
O1485     Co1505   1.984       .  S
O1486      C1494   1.267       .  A
O1486     Co1506   2.062       .  S
O1487      C1495   1.259       .  A
O1487     Co1507   1.967       .  S
O1488      C1496   1.255       .  A
O1488     Co1508   1.948       .  S
O1489      C1495   1.264       .  A
O1489     Co1506   1.988       .  S
O1490      C1496   1.263       .  A
O1490     Co1505   1.996       .  S
O1491      C1494   1.238       .  A
O1491     Co1508   1.920       .  S
O1492      C1493   1.262       .  A
O1492     Co1507   1.983       .  S
C1493      C2079   1.481       .  S
C1494      C2016   1.484       .  S
C1495      C2069   1.462       .  S
C1496      C2036   1.466       .  S
O1497      C1510   1.263       .  A
O1497     Co1505   2.016       .  S
O1498      C1511   1.270       .  A
O1498     Co1506   1.975       .  S
O1499      C1512   1.275       .  A
O1499     Co1507   2.025       .  S
O1500      C1513   1.280       .  A
O1500     Co1508   2.023       .  S
O1501      C1513   1.268       .  A
O1501     Co1506   1.937       .  S
O1502      C1512   1.264       .  A
O1502     Co1505   1.970       .  S
O1503      C1510   1.237       .  A
O1503     Co1508   1.896       .  S
O1504      C1511   1.275       .  A
O1504     Co1507   2.013       .  S
Co1505     O1509   2.113       .  S
Co1506     O1509   2.044       .  S
Co1507     O1509   2.049       .  S
Co1508     O1509   2.030       .  S
C1510      C2026   1.457       .  S
C1511      C2109   1.490       .  S
C1512      C2119   1.489       .  S
C1513      C2006   1.473       .  S
O1514      C1522   1.263       .  A
O1514     Co1534   1.960       .  S
O1515      C1523   1.270       .  A
O1515     Co1535   1.924       .  S
O1516      C1524   1.279       .  A
O1516     Co1536   2.020       .  S
O1517      C1525   1.257       .  A
O1517     Co1537   1.997       .  S
O1518      C1524   1.273       .  A
O1518     Co1535   1.984       .  S
O1519      C1525   1.252       .  A
O1519     Co1534   1.970       .  S
O1520      C1523   1.289       .  A
O1520     Co1537   2.077       .  S
O1521      C1522   1.274       .  A
O1521     Co1536   2.016       .  S
C1522      C2059   1.477       .  S
C1523      C1979   1.478       .  S
C1524      C2049   1.490       .  S
C1525      C1996   1.465       .  S
O1526      C1539   1.282       .  A
O1526     Co1534   2.056       .  S
O1527      C1540   1.262       .  A
O1527     Co1535   1.987       .  S
O1528      C1541   1.264       .  A
O1528     Co1536   1.980       .  S
O1529      C1542   1.259       .  A
O1529     Co1537   1.900       .  S
O1530      C1542   1.291       .  A
O1530     Co1535   2.103       .  S
O1531      C1541   1.268       .  A
O1531     Co1534   1.999       .  S
O1532      C1539   1.261       .  A
O1532     Co1537   1.954       .  S
O1533      C1540   1.261       .  A
O1533     Co1536   1.981       .  S
Co1534     O1538   2.051       .  S
Co1535     O1538   2.038       .  S
Co1536     O1538   2.041       .  S
Co1537     O1538   1.995       .  S
C1539      C1986   1.488       .  S
C1540      C2089   1.477       .  S
C1541      C2099   1.487       .  S
C1542      C1966   1.470       .  S
N1543      H1575   1.042       .  S
N1543      C1548   1.349   1_554  A
N1543      C1547   1.356       .  A
N1544      C1551   1.344       .  A
N1544      C1552   1.346       .  A
N1545      H1576   1.042       .  S
N1545      C1550   1.350   1_554  A
N1545      C1549   1.354       .  A
N1546      C1553   1.356       .  A
N1546      C1554   1.356       .  A
C1547      C1555   1.388       .  A
C1547      C1563   1.417       .  A
C1548      C1564   1.413       .  A
C1548      C1556   1.386       .  A
C1549      C1557   1.387       .  A
C1549      C1566   1.415       .  A
C1550      C1565   1.415       .  A
C1550      C1558   1.388       .  A
C1551      C1563   1.406       .  A
C1551      C1559   1.386       .  A
C1552      C1566   1.407       .  A
C1552      C1560   1.387       .  A
C1553      C2269   1.385       .  A
C1553      C1564   1.419       .  A
C1554      C2270   1.387       .  A
C1554      C1565   1.423       .  A
C1555      C1556   1.381   1_554  A
C1555      H1567   1.082       .  S
C1556      H1568   1.082       .  S
C1557      C1558   1.379   1_554  A
C1557      H1569   1.082       .  S
C1558      H1570   1.082       .  S
C1559      C1560   1.374       .  A
C1559      H1571   1.082       .  S
C1560      H1572   1.082       .  S
C1561      C2261   1.385       .  A
C1561      C1562   1.381       .  A
C1561      H1573   1.082       .  S
C1562      C2262   1.387       .  A
C1562      H1574   1.081       .  S
C1563      C1926   1.490       .  S
C1564      C2657   1.498       .  S
C1565      C2664   1.502       .  S
C1566      C1936   1.486       .  S
N1577      H1609   1.042       .  S
N1577      C1582   1.354       .  A
N1577      C1581   1.352   1_556  A
N1578      C1585   1.350       .  A
N1578      C1586   1.352       .  A
N1579      H1610   1.041       .  S
N1579      C1584   1.352       .  A
N1579      C1583   1.351   1_556  A
N1580      C1587   1.349       .  A
N1580      C1588   1.348       .  A
C1581      C1589   1.385   1_554  A
C1581      C1597   1.411       .  A
C1582      C1598   1.417       .  A
C1582      C1590   1.389       .  A
C1583      C1591   1.384       .  A
C1583      C1600   1.408       .  A
C1584      C1599   1.416       .  A
C1584      C1592   1.390       .  A
C1585      C1597   1.413       .  A
C1585      C1593   1.386       .  A
C1586      C1600   1.414       .  A
C1586      C1594   1.386       .  A
C1587      C1595   1.387       .  A
C1587      C1598   1.412       .  A
C1588      C1596   1.385       .  A
C1588      C1599   1.409       .  A
C1589      C1590   1.373       .  A
C1589      H1601   1.082   1_556  S
C1590      H1602   1.082       .  S
C1591      C1592   1.375   1_554  A
C1591      H1603   1.082       .  S
C1592      H1604   1.082       .  S
C1593      C1594   1.381       .  A
C1593      H1605   1.082       .  S
C1594      H1606   1.082       .  S
C1595      C1596   1.377       .  A
C1595      H1607   1.082       .  S
C1596      H1608   1.082       .  S
C1597      C1896   1.487       .  S
C1598      C1916   1.494       .  S
C1599      C1909   1.482       .  S
C1600      C1886   1.488       .  S
O1611      C1619   1.265       .  A
O1612      C1620   1.284       .  A
O1613      C1621   1.279       .  A
O1614      C1622   1.259       .  A
O1615      C1621   1.291       .  A
O1616      C1622   1.266       .  A
O1617      C1620   1.275       .  A
O1618      C1619   1.265       .  A
C1619      C1946   1.489       .  S
C1620      C1859   1.475       .  S
C1621      C1846   1.474       .  S
C1622      C1906   1.461       .  S
O1623      C1636   1.262       .  A
O1623     Co1631   1.947       .  S
O1624      C1637   1.252       .  A
O1624     Co1632   1.933       .  S
O1625      C1638   1.280       .  A
O1625     Co1633   2.033       .  S
O1626      C1639   1.252       .  A
O1626     Co1634   1.974       .  S
O1627      C1639   1.259       .  A
O1627     Co1632   1.992       .  S
O1628      C1638   1.264       .  A
O1628     Co1631   1.958       .  S
O1629      C1636   1.272       .  A
O1629     Co1634   2.016       .  S
O1630      C1637   1.264       .  A
O1630     Co1633   2.001       .  S
Co1631     O1635   2.020       .  S
Co1632     O1635   2.093       .  S
Co1633     O1635   1.953       .  S
Co1634     O1635   1.948       .  S
C1636      C1919   1.465       .  S
C1637      C1866   1.466       .  S
C1638      C1959   1.475       .  S
C1639      C1876   1.472       .  S
N1640      H1672   1.038       .  S
N1640      C1645   1.356       .  A
N1640      C1644   1.355       .  A
N1641      C1648   1.349       .  A
N1641      C1649   1.353       .  A
N1642      H1673   1.042       .  S
N1642      C1647   1.348       .  A
N1642      C1646   1.350       .  A
N1643      C1650   1.350       .  A
N1643      C1651   1.354       .  A
C1644      C1652   1.389       .  A
C1644      C1660   1.421       .  A
C1645      C1661   1.421       .  A
C1645      C1653   1.387       .  A
C1646      C1654   1.386       .  A
C1646      C1663   1.407       .  A
C1647      C1662   1.405       .  A
C1647      C1655   1.386       .  A
C1648      C1660   1.418       .  A
C1648      C1656   1.390       .  A
C1649      C1663   1.415       .  A
C1649      C1657   1.384       .  A
C1650      C1658   1.388       .  A
C1650      C1661   1.417       .  A
C1651      C1659   1.384       .  A
C1651      C1662   1.414       .  A
C1652      C1653   1.377       .  A
C1652      H1664   1.081       .  S
C1653      H1665   1.082       .  S
C1654      C1655   1.372       .  A
C1656      C1657   1.374       .  A
C1656      H2376   1.081       .  S
C1657      H2377   1.082       .  S
C1658      C1659   1.379       .  A
C1658      H1670   1.082       .  S
C1659      H1671   1.082       .  S
C1660      C1969   1.486       .  S
C1661      C1976   1.492       .  S
C1662      C1856   1.493       .  S
C1663      C1849   1.493       .  S
H1668      C2364   1.081   1_545  S
H1669      C2365   1.082   1_545  S
N1674      H1706   1.034       .  S
N1674      C1679   1.355       .  A
N1674      C1678   1.354       .  A
N1675      C1682   1.350       .  A
N1675      C1683   1.350       .  A
N1676      H1707   1.035       .  S
N1676      C1681   1.349       .  A
N1676      C1680   1.354       .  A
N1677      C1684   1.355       .  A
N1677      C1685   1.351       .  A
C1678      C1686   1.388       .  A
C1678      C1694   1.417       .  A
C1679      C1695   1.417       .  A
C1679      C1687   1.386       .  A
C1680      C1688   1.388       .  A
C1680      C1697   1.415       .  A
C1681      C1696   1.412       .  A
C1681      C1689   1.388       .  A
C1682      C1694   1.411       .  A
C1682      C1690   1.387       .  A
C1683      C1697   1.410       .  A
C1683      C1691   1.385       .  A
C1684      C1692   1.384       .  A
C1684      C1695   1.412       .  A
C1685      C1693   1.389       .  A
C1685      C1696   1.416       .  A
C1686      C1687   1.373       .  A
C1686      H1698   1.081       .  S
C1687      H1699   1.082       .  S
C1688      C1689   1.378       .  A
C1688      H1700   1.082       .  S
C1689      H1701   1.083       .  S
C1690      C1691   1.367       .  A
C1690      H1702   1.081       .  S
C1691      H1703   1.082       .  S
C1692      C1693   1.370       .  A
C1692      H2412   1.082       .  S
C1693      H2413   1.082       .  S
C1694      C1999   1.482       .  S
C1695      C1989   1.495       .  S
C1696      C1869   1.478       .  S
C1697      C1879   1.485       .  S
H1704      C2400   1.082       .  S
H1705      C2401   1.082       .  S
N1708      H1740   1.041       .  S
N1708      C1713   1.351       .  A
N1708      C1712   1.357       .  A
N1709      C1716   1.348       .  A
N1709      C1717   1.347       .  A
N1710      H1741   1.041       .  S
N1710      C1715   1.351       .  A
N1710      C1714   1.353       .  A
N1711      C1718   1.353       .  A
N1711      C1719   1.355       .  A
C1712      C1720   1.384       .  A
C1712      C1728   1.414       .  A
C1713      C1729   1.420       .  A
C1713      C1721   1.391       .  A
C1714      C1722   1.387       .  A
C1714      C1731   1.415       .  A
C1715      C1730   1.412       .  A
C1715      C1723   1.386       .  A
C1716      C1728   1.404       .  A
C1716      C1724   1.383       .  A
C1717      C1731   1.411       .  A
C1717      C1725   1.389       .  A
C1718      C1726   1.389   1_545  A
C1718      C1729   1.419       .  A
C1719      C1727   1.384   1_545  A
C1719      C1730   1.416       .  A
C1720      C1721   1.372       .  A
C1720      H1732   1.082       .  S
C1721      H1733   1.080       .  S
C1722      C1723   1.375       .  A
C1722      H1734   1.082       .  S
C1723      H1735   1.082       .  S
C1724      C1725   1.373       .  A
C1724      H1736   1.082       .  S
C1725      H1737   1.082       .  S
C1726      C1727   1.376       .  A
C1726      H2446   1.081       .  S
C1727      H2447   1.082       .  S
C1728      C2019   1.490       .  S
C1729      C2009   1.484       .  S
C1730      C1829   1.493       .  S
C1731      C1836   1.487       .  S
H1738      C2434   1.081       .  S
H1739      C2435   1.082       .  S
N1742      H1774   1.037       .  S
N1742      C1747   1.351       .  A
N1742      C1746   1.348       .  A
N1743      C1750   1.350       .  A
N1743      C1751   1.351       .  A
N1744      H1775   1.039       .  S
N1744      C1749   1.356       .  A
N1744      C1748   1.356       .  A
N1745      C1752   1.349       .  A
N1745      C1753   1.348       .  A
C1746      C1754   1.389       .  A
C1746      C1762   1.408       .  A
C1747      C1763   1.407       .  A
C1747      C1755   1.387       .  A
C1748      C1756   1.387       .  A
C1748      C1765   1.417       .  A
C1749      C1764   1.416       .  A
C1749      C1757   1.386       .  A
C1750      C1762   1.413       .  A
C1750      C1758   1.388   1_545  A
C1751      C1765   1.412       .  A
C1751      C1759   1.386   1_545  A
C1752      C1760   1.386       .  A
C1752      C1763   1.408       .  A
C1753      C1761   1.387       .  A
C1753      C1764   1.411       .  A
C1754      C1755   1.367       .  A
C1754      H1766   1.083       .  S
C1755      H1767   1.083       .  S
C1756      C1757   1.372       .  A
C1756      H1768   1.082       .  S
C1757      H1769   1.082       .  S
C1758      C1759   1.366       .  A
C1758      H2478   1.082       .  S
C1759      H2479   1.082       .  S
C1760      C1761   1.363       .  A
C1760      H1772   1.082       .  S
C1761      H1773   1.082       .  S
C1762      C2029   1.469       .  S
C1763      C2039   1.471       .  S
C1764      C1816   1.484       .  S
C1765      C1806   1.483       .  S
H1770      C2466   1.082       .  S
H1771      C2467   1.082       .  S
O1776      C1784   1.260       .  A
O1776     Co1796   1.965       .  S
O1777      C1785   1.287       .  A
O1777     Co1797   2.057       .  S
O1778     Co1798   2.027   1_455  S
O1779      C1787   1.251       .  A
O1779     Co1799   2.001   1_655  S
O1780      C1786   1.270       .  A
O1780     Co1797   1.972       .  S
O1781      C1787   1.249       .  A
O1781     Co1796   1.973       .  S
O1782      C1785   1.271       .  A
O1783      C1784   1.270       .  A
O1783     Co1798   2.016       .  S
C1784      C1899   1.483       .  S
C1785      C1839   1.462       .  S
C1786      C1889   1.488       .  S
C1787      C1819   1.469       .  S
O1788      C1801   1.280       .  A
O1788     Co1796   2.051       .  S
O1789      C1802   1.259       .  A
O1789     Co1797   1.990       .  S
O1790      C1803   1.264       .  A
O1790     Co1798   1.976       .  S
O1791      C1804   1.261       .  A
O1792      C1804   1.282       .  A
O1792     Co1797   2.101       .  S
O1793      C1803   1.266       .  A
O1793     Co1796   1.990       .  S
O1794      C1801   1.280       .  A
O1794     Co1799   1.996   1_655  S
O1795     Co1798   1.973   1_455  S
Co1796     O1800   2.072       .  S
Co1798     O1800   2.062       .  S
Co1799     O1800   1.921   1_455  S
C1801      C1809   1.477       .  S
C1802      C1929   1.479       .  S
C1803      C1939   1.478       .  S
C1804      C1826   1.481       .  S
C1805      C1806   1.406   1_565  A
C1805      C2518   1.406       .  A
C1805      H1811   1.083   1_565  S
C1806      C2515   1.397   1_545  A
C1807      C2514   1.397       .  A
C1807      C1808   1.389       .  A
C1807      H1812   1.084       .  S
C1808      C1809   1.408       .  A
C1808      H1813   1.083       .  S
C1809      C1810   1.404       .  A
C1810      C2513   1.406       .  A
C1810      H1814   1.083       .  S
C1815      C1816   1.401       .  A
C1815      C1820   1.395       .  A
C1815      H1821   1.083       .  S
C1816      C1817   1.406       .  A
C1817      C1818   1.393       .  A
C1817      H1822   1.084       .  S
C1818      C1819   1.402       .  A
C1818      H1823   1.083       .  S
C1819      C1820   1.405       .  A
C1820      H1824   1.083       .  S
C1825      C1826   1.406       .  A
C1825      C2538   1.392       .  A
C1825      H2539   1.084       .  S
C1826      C1827   1.406       .  A
C1827      C1828   1.409       .  A
C1827      H1832   1.083       .  S
C1828      C2537   1.408       .  A
C1828      H1833   1.083       .  S
C1829      C2536   1.408   1_545  A
C1829      C1830   1.402       .  A
C1830      C2533   1.392   1_545  A
C1830      H1834   1.084       .  S
H1831      C2533   1.084       .  S
C1835      C1836   1.404       .  A
C1835      C1840   1.395       .  A
C1835      H1841   1.083       .  S
C1836      C1837   1.407       .  A
C1837      C1838   1.394       .  A
C1837      H1842   1.083       .  S
C1838      C1839   1.398       .  A
C1838      H1843   1.083       .  S
C1839      C1840   1.402       .  A
C1845      C1846   1.399   1_565  A
C1845      C1850   1.403       .  A
C1845      H1851   1.083       .  S
C1846      C2555   1.408       .  A
C1847      C2554   1.408       .  A
C1847      C1848   1.393       .  A
C1847      H1852   1.083       .  S
C1848      C1849   1.399       .  A
C1848      H1853   1.083       .  S
C1849      C2558   1.413       .  A
C1850      C2557   1.413       .  A
C1850      H1854   1.083       .  S
C1855      C1856   1.411       .  A
C1855      C1860   1.398       .  A
C1855      H1861   1.083       .  S
C1857      C1858   1.402       .  A
C1857      H1862   1.083       .  S
C1858      H1863   1.083       .  S
C1859      C1860   1.396       .  A
C1860      H1864   1.083       .  S
C1865      C1866   1.408       .  A
C1865      C2578   1.381       .  A
C1865      H1871   1.083       .  S
C1866      C1867   1.402       .  A
C1867      C2576   1.401   1_545  A
C1867      H1872   1.083       .  S
C1868      C2575   1.401       .  A
C1868      C1869   1.407       .  A
C1868      H1873   1.083       .  S
C1869      C1870   1.396       .  A
C1870      C2573   1.381       .  A
C1870      H1874   1.084       .  S
C1875      C1876   1.403       .  A
C1875      C1880   1.391       .  A
C1875      H1881   1.083       .  S
C1876      C1877   1.408       .  A
C1877      C1878   1.400       .  A
C1877      H1882   1.083       .  S
C1878      C1879   1.403       .  A
C1878      H1883   1.083       .  S
C1879      C1880   1.403       .  A
C1880      H1884   1.083       .  S
C1885      C1886   1.402       .  A
C1885      C1890   1.396       .  A
C1885      H1891   1.084       .  S
C1886      C1887   1.403       .  A
C1887      C1888   1.405       .  A
C1887      H1892   1.083       .  S
C1888      C1889   1.410       .  A
C1888      H1893   1.083       .  S
C1889      C1890   1.407       .  A
C1890      H1894   1.083       .  S
C1895      C1896   1.403       .  A
C1895      C1900   1.402       .  A
C1895      H1901   1.083       .  S
C1896      C1897   1.404       .  A
C1897      C1898   1.396       .  A
C1897      H1902   1.084       .  S
C1898      C1899   1.406       .  A
C1898      H1903   1.083       .  S
C1899      C1900   1.409       .  A
C1900      H1904   1.083       .  S
C1905      C1906   1.400       .  A
C1905      C1910   1.390       .  A
C1905      H1911   1.084       .  S
C1906      C1907   1.403       .  A
C1907      C1908   1.401       .  A
C1907      H1912   1.083       .  S
C1908      C1909   1.406       .  A
C1908      H1913   1.083       .  S
C1909      C1910   1.402       .  A
C1910      H1914   1.083       .  S
C1915      C1916   1.412       .  A
C1915      C1920   1.403       .  A
C1915      H1921   1.083       .  S
C1916      C1917   1.402       .  A
C1917      C1918   1.389       .  A
C1917      H1922   1.082       .  S
C1918      C1919   1.403       .  A
C1918      H1923   1.084       .  S
C1919      C1920   1.400       .  A
C1920      H1924   1.083       .  S
C1925      C1926   1.403       .  A
C1925      C1930   1.389       .  A
C1925      H1931   1.084       .  S
C1926      C1927   1.405       .  A
C1927      C1928   1.405       .  A
C1927      H1932   1.083       .  S
C1928      C1929   1.408       .  A
C1928      H1933   1.083       .  S
C1929      C1930   1.405       .  A
C1930      H1934   1.083       .  S
C1935      C1936   1.402       .  A
C1935      C1940   1.391       .  A
C1935      H1941   1.084       .  S
C1936      C1937   1.405       .  A
C1937      C1938   1.402       .  A
C1937      H1942   1.083       .  S
C1938      C1939   1.406       .  A
C1938      H1943   1.083       .  S
C1939      C1940   1.407       .  A
C1940      H1944   1.083       .  S
C1945      C1946   1.408       .  A
C1945      C1950   1.408       .  A
C1945      H1951   1.083       .  S
C1946      C1947   1.406       .  A
C1947      C1948   1.397       .  A
C1947      H1952   1.083       .  S
C1948      C1949   1.405       .  A
C1948      H2661   1.084       .  S
C1949      C1950   1.407       .  A
C1949      C2272   1.498       .  S
C1950      H1954   1.083       .  S
H1953      C2656   1.084       .  S
C1955      C1956   1.406       .  A
C1955      C1960   1.393       .  A
C1955      H1961   1.083       .  S
C1956      C2665   1.410       .  A
C1956      C2273   1.502       .  S
C1957      C2664   1.410       .  A
C1957      C1958   1.410       .  A
C1957      H1962   1.083       .  S
C1958      C2667   1.406       .  A
C1958      H1963   1.083       .  S
C1959      C2666   1.406       .  A
C1959      C1960   1.402       .  A
C1960      H1964   1.084       .  S
C1965      C1966   1.402       .  A
C1965      C1970   1.401       .  A
C1965      H1971   1.083       .  S
C1966      C1967   1.404       .  A
C1967      C2676   1.393   1_545  A
C1967      H1972   1.083       .  S
C1968      C2675   1.393       .  A
C1968      C1969   1.401       .  A
C1968      H1973   1.084       .  S
C1969      C2678   1.406       .  A
C1970      C2677   1.406   1_545  A
C1970      H1974   1.083   1_545  S
C1975      C1976   1.407       .  A
C1975      C1980   1.403       .  A
C1975      H1981   1.083       .  S
C1976      C1977   1.403       .  A
C1977      C1978   1.397       .  A
C1977      H1982   1.083       .  S
C1978      C1979   1.406       .  A
C1978      H1983   1.083       .  S
C1979      C1980   1.404       .  A
C1980      H1984   1.083       .  S
C1985      C1986   1.407       .  A
C1985      C2698   1.408       .  A
C1985      H1991   1.083       .  S
C1986      C1987   1.408       .  A
C1987      C1988   1.392   1_545  A
C1987      H1992   1.083       .  S
C1988      C2697   1.400       .  A
C1988      H2701   1.084       .  S
C1989      C2696   1.400       .  A
C1989      C1990   1.409       .  A
C1990      C2693   1.408       .  A
C1990      H1994   1.083       .  S
H1993      C2696   1.084       .  S
C1995      C1996   1.402       .  A
C1995      C2000   1.394       .  A
C1995      H2001   1.083       .  S
C1996      C1997   1.402       .  A
C1997      C1998   1.398       .  A
C1997      H2002   1.083       .  S
C1998      C1999   1.405       .  A
C1998      H2003   1.083       .  S
C1999      C2000   1.402       .  A
C2000      H2004   1.083       .  S
C2005      C2006   1.406       .  A
C2005      C2718   1.383       .  A
C2005      H2719   1.078       .  S
C2006      C2007   1.401       .  A
C2007      C2008   1.408       .  A
C2007      H2012   1.082       .  S
C2008      C2717   1.410       .  A
C2008      H2013   1.083       .  S
C2009      C2716   1.410   1_545  A
C2009      C2010   1.395       .  A
C2010      C2713   1.383   1_545  A
C2010      H2014   1.084       .  S
H2011      C2713   1.078       .  S
C2015      C2016   1.406       .  A
C2015      C2020   1.406       .  A
C2015      H2021   1.083       .  S
C2016      C2017   1.408       .  A
C2017      C2018   1.393       .  A
C2017      H2022   1.083       .  S
C2018      C2019   1.401       .  A
C2018      H2023   1.084       .  S
C2019      C2020   1.407       .  A
C2020      H2024   1.083       .  S
C2025      C2026   1.408       .  A
C2025      C2738   1.384       .  A
C2025      H2031   1.083       .  S
C2026      C2027   1.397       .  A
C2027      C2736   1.392       .  A
C2027      H2032   1.083       .  S
C2028      C2735   1.392   1_545  A
C2028      C2029   1.404       .  A
C2028      H2033   1.083       .  S
C2029      C2030   1.396       .  A
C2030      C2733   1.384   1_545  A
C2030      H2034   1.084       .  S
C2035      C2036   1.406       .  A
C2035      C2040   1.385       .  A
C2035      H2041   1.082       .  S
C2036      C2037   1.404       .  A
C2037      C2038   1.398       .  A
C2037      H2042   1.083       .  S
C2038      C2039   1.402       .  A
C2038      H2043   1.083       .  S
C2039      C2040   1.396       .  A
C2040      H2044   1.084       .  S
C2045      C2046   1.406       .  A
C2045      C2050   1.397       .  A
C2045      H2051   1.083       .  S
C2046      C2047   1.407       .  A
C2047      C2048   1.408       .  A
C2047      H2052   1.083       .  S
C2048      C2049   1.410       .  A
C2048      H2053   1.083       .  S
C2049      C2050   1.406       .  A
C2050      H2054   1.083       .  S
C2055      C2056   1.405       .  A
C2055      C2060   1.394       .  A
C2055      H2061   1.084       .  S
C2056      C2057   1.400       .  A
C2057      C2058   1.398       .  A
C2057      H2062   1.083       .  S
C2058      C2059   1.409       .  A
C2058      H2063   1.083       .  S
C2059      C2060   1.404       .  A
C2060      H2064   1.083       .  S
C2065      C2066   1.400       .  A
C2065      C2070   1.387       .  A
C2065      H2071   1.084       .  S
C2066      C2067   1.398       .  A
C2067      C2068   1.392       .  A
C2067      H2072   1.083       .  S
C2068      C2069   1.406       .  A
C2068      H2073   1.083       .  S
C2069      C2070   1.403       .  A
C2070      H2074   1.083       .  S
C2075      C2076   1.401       .  A
C2075      C2080   1.388       .  A
C2075      H2081   1.084       .  S
C2076      C2077   1.407       .  A
C2077      C2078   1.405       .  A
C2077      H2082   1.083       .  S
C2078      C2079   1.406       .  A
C2078      H2083   1.083       .  S
C2079      C2080   1.408       .  A
C2080      H2084   1.083       .  S
C2085      C2086   1.403   1_565  A
C2085      C2090   1.401   1_565  A
C2085      H2799   1.083       .  S
C2086      C2087   1.402       .  A
C2087      C2088   1.391       .  A
C2087      H2092   1.084       .  S
C2088      C2089   1.405       .  A
C2088      H2093   1.083       .  S
C2089      C2090   1.408       .  A
C2090      H2802   1.083       .  S
H2091      C2793   1.083       .  S
H2094      C2798   1.083       .  S
C2095      C2096   1.405       .  A
C2095      C2100   1.393       .  A
C2095      H2101   1.083       .  S
C2096      C2097   1.408   1_545  A
C2097      C2098   1.407   1_565  A
C2097      H2810   1.083       .  S
C2098      C2099   1.409       .  A
C2098      H2103   1.083   1_545  S
C2099      C2100   1.406       .  A
C2100      H2104   1.083       .  S
H2102      C2805   1.083       .  S
C2105      C2106   1.406       .  A
C2105      C2110   1.394       .  A
C2105      H2111   1.083       .  S
C2106      C2107   1.410       .  A
C2107      C2108   1.412       .  A
C2107      H2820   1.083       .  S
C2108      C2109   1.410       .  A
C2108      H2113   1.083       .  S
C2109      C2110   1.405       .  A
C2110      H2114   1.083       .  S
H2112      C2815   1.083       .  S
C2115      C2116   1.404       .  A
C2115      C2120   1.396       .  A
C2115      H2121   1.083       .  S
C2116      C2117   1.404       .  A
C2117      C2118   1.406       .  A
C2117      H2122   1.083       .  S
C2118      C2119   1.411       .  A
C2118      H2123   1.083       .  S
C2119      C2120   1.406       .  A
C2120      H2124   1.083       .  S
N2125      H2157   1.042       .  S
N2125      C2129   1.354       .  A
N2126      C2134   1.348   1_455  A
N2127      H2158   1.042       .  S
N2127      C2132   1.349       .  A
N2128      C2136   1.355   1_455  A
C2129      C2137   1.387       .  A
C2129      C2145   1.416       .  A
C2130      C2146   1.416       .  A
C2130      C2138   1.387   1_565  A
C2131      C2139   1.387       .  A
C2131      C2148   1.419       .  A
C2132      C2147   1.413       .  A
C2132      C2140   1.386   1_565  A
C2133      C2145   1.406       .  A
C2133      C2141   1.386       .  A
C2134      C2148   1.409       .  A
C2134      C2142   1.386       .  A
C2135      C2143   1.387       .  A
C2135      C2146   1.423       .  A
C2136      C2144   1.386       .  A
C2136      C2147   1.421       .  A
C2137      H2149   1.082       .  S
C2138      H2150   1.082       .  S
C2139      H2151   1.082       .  S
C2140      H2152   1.082       .  S
C2141      H2153   1.082       .  S
C2142      H2154   1.082       .  S
C2143      H2155   1.082       .  S
C2144      H2156   1.082       .  S
C2145      C2794   1.483       .  S
C2146      C2814   1.506       .  S
C2147      C2824   1.493       .  S
C2148      C2804   1.499       .  S
N2159      H2191   1.041       .  S
N2159      C2164   1.352       .  A
N2159      C2163   1.350       .  A
N2160      C2168   1.347   1_455  A
N2161      H2192   1.042       .  S
N2161      C2166   1.346       .  A
N2161      C2165   1.356       .  A
N2162      C2170   1.352   1_455  A
C2163      C2171   1.389       .  A
C2163      C2179   1.412       .  A
C2164      C2180   1.411       .  A
C2164      C2172   1.386       .  A
C2165      C2173   1.387       .  A
C2165      C2182   1.413       .  A
C2166      C2181   1.409       .  A
C2166      C2174   1.387       .  A
C2167      C2179   1.403       .  A
C2167      C2175   1.388       .  A
C2168      C2182   1.406       .  A
C2168      C2176   1.386       .  A
C2169      C2177   1.385       .  A
C2169      C2180   1.419       .  A
C2170      C2178   1.387       .  A
C2170      C2181   1.417       .  A
C2171      C2172   1.376       .  A
C2171      H2183   1.082       .  S
C2172      H2184   1.082       .  S
C2173      C2174   1.375       .  A
C2173      H2185   1.082       .  S
C2174      H2186   1.082       .  S
C2175      H2187   1.083       .  S
C2176      H2188   1.082       .  S
C2177      H2189   1.082       .  S
C2178      H2190   1.082       .  S
C2179      C2774   1.466       .  S
C2180      C2754   1.500       .  S
C2181      C2764   1.482       .  S
C2182      C2784   1.489       .  S
O2193      C2201   1.262       .  A
O2193     Co2213   1.984       .  S
O2194      C2202   1.267       .  A
O2194     Co2214   2.062       .  S
O2195      C2203   1.259       .  A
O2195     Co2215   1.967       .  S
O2196      C2204   1.255       .  A
O2196     Co2216   1.948       .  S
O2197      C2203   1.264       .  A
O2197     Co2214   1.988       .  S
O2198      C2204   1.263       .  A
O2198     Co2213   1.996       .  S
O2199      C2202   1.238       .  A
O2199     Co2216   1.920       .  S
O2200      C2201   1.262       .  A
O2200     Co2215   1.983       .  S
C2201      C2787   1.481       .  S
C2202      C2724   1.484       .  S
C2203      C2777   1.462       .  S
C2204      C2744   1.466       .  S
O2205      C2218   1.263       .  A
O2205     Co2213   2.016       .  S
O2206      C2219   1.270       .  A
O2206     Co2214   1.975       .  S
O2207      C2220   1.275       .  A
O2207     Co2215   2.025       .  S
O2208      C2221   1.280       .  A
O2208     Co2216   2.023       .  S
O2209      C2221   1.268       .  A
O2209     Co2214   1.937       .  S
O2210      C2220   1.264       .  A
O2210     Co2213   1.970       .  S
O2211      C2218   1.237       .  A
O2211     Co2216   1.896       .  S
O2212      C2219   1.275       .  A
O2212     Co2215   2.012       .  S
Co2213     O2217   2.113       .  S
Co2214     O2217   2.044       .  S
Co2215     O2217   2.049       .  S
Co2216     O2217   2.030       .  S
C2218      C2734   1.456       .  S
C2219      C2817   1.490       .  S
C2220      C2827   1.489       .  S
C2221      C2714   1.473       .  S
O2222      C2230   1.263       .  A
O2222     Co2242   1.960       .  S
O2223      C2231   1.270       .  A
O2223     Co2243   1.924       .  S
O2224      C2232   1.279       .  A
O2224     Co2244   2.020       .  S
O2225      C2233   1.257       .  A
O2225     Co2245   1.997       .  S
O2226      C2232   1.273       .  A
O2226     Co2243   1.984       .  S
O2227      C2233   1.252       .  A
O2227     Co2242   1.970       .  S
O2228      C2231   1.289       .  A
O2228     Co2245   2.077       .  S
O2229      C2230   1.274       .  A
O2229     Co2244   2.017       .  S
C2230      C2767   1.477       .  S
C2231      C2687   1.478       .  S
C2232      C2757   1.490       .  S
C2233      C2704   1.465       .  S
O2234      C2247   1.282       .  A
O2234     Co2242   2.056       .  S
O2235      C2248   1.262       .  A
O2235     Co2243   1.987       .  S
O2236      C2249   1.264       .  A
O2236     Co2244   1.980       .  S
O2237      C2250   1.259       .  A
O2237     Co2245   1.900       .  S
O2238      C2250   1.291       .  A
O2238     Co2243   2.103       .  S
O2239      C2249   1.268       .  A
O2239     Co2242   1.999       .  S
O2240      C2247   1.261       .  A
O2240     Co2245   1.954       .  S
O2241      C2248   1.261       .  A
O2241     Co2244   1.981       .  S
Co2242     O2246   2.051       .  S
Co2243     O2246   2.038       .  S
Co2244     O2246   2.041       .  S
Co2245     O2246   1.995       .  S
C2247      C2694   1.488       .  S
C2248      C2797   1.477       .  S
C2249      C2807   1.487       .  S
C2250      C2674   1.470       .  S
N2251      H2283   1.042       .  S
N2251      C2256   1.349   1_554  A
N2251      C2255   1.356       .  A
N2252      C2259   1.344       .  A
N2252      C2260   1.346       .  A
N2253      H2284   1.042   1_565  S
N2253      C2258   1.350   1_554  A
N2253      C2257   1.354       .  A
N2254      C2261   1.356       .  A
N2254      C2262   1.356       .  A
C2255      C2263   1.388   1_545  A
C2255      C2271   1.417       .  A
C2256      C2272   1.413       .  A
C2256      C2264   1.386   1_545  A
C2257      C2265   1.387       .  A
C2257      C2274   1.415       .  A
C2258      C2273   1.415   1_565  A
C2258      C2266   1.388       .  A
C2259      C2271   1.406       .  A
C2259      C2267   1.386       .  A
C2260      C2274   1.407   1_545  A
C2260      C2268   1.387       .  A
C2261      C2272   1.419       .  A
C2262      C2273   1.423       .  A
C2263      C2264   1.381   1_554  A
C2263      H2275   1.082       .  S
C2264      H2276   1.082       .  S
C2265      C2266   1.379   1_554  A
C2265      H2277   1.082       .  S
C2266      H2278   1.082       .  S
C2267      C2268   1.374       .  A
C2267      H2279   1.082       .  S
C2268      H2280   1.082       .  S
C2269      C2270   1.381       .  A
C2269      H2281   1.082       .  S
C2270      H2282   1.081       .  S
C2271      C2634   1.490   1_545  S
C2274      C2644   1.486       .  S
N2285      H2317   1.042       .  S
N2285      C2290   1.354       .  A
N2285      C2289   1.352   1_556  A
N2286      C2293   1.350       .  A
N2286      C2294   1.352       .  A
N2287      H2318   1.041       .  S
N2287      C2292   1.352       .  A
N2287      C2291   1.351   1_556  A
N2288      C2295   1.349       .  A
N2288      C2296   1.348       .  A
C2289      C2297   1.385   1_554  A
C2289      C2305   1.411       .  A
C2290      C2306   1.417       .  A
C2290      C2298   1.389       .  A
C2291      C2299   1.384       .  A
C2291      C2308   1.408       .  A
C2292      C2307   1.416       .  A
C2292      C2300   1.390       .  A
C2293      C2305   1.413       .  A
C2293      C2301   1.386       .  A
C2294      C2308   1.414       .  A
C2294      C2302   1.386       .  A
C2295      C2303   1.387       .  A
C2295      C2306   1.412       .  A
C2296      C2304   1.385       .  A
C2296      C2307   1.409       .  A
C2297      C2298   1.373       .  A
C2297      H2309   1.082   1_556  S
C2298      H2310   1.082       .  S
C2299      C2300   1.375   1_554  A
C2299      H2311   1.082       .  S
C2300      H2312   1.082       .  S
C2301      C2302   1.381       .  A
C2301      H2313   1.082       .  S
C2302      H2314   1.082       .  S
C2303      C2304   1.377       .  A
C2303      H2315   1.082       .  S
C2304      H2316   1.082       .  S
C2305      C2604   1.487       .  S
C2306      C2624   1.494       .  S
C2307      C2617   1.482       .  S
C2308      C2594   1.488       .  S
O2319      C2327   1.265       .  A
O2320      C2328   1.284       .  A
O2321      C2329   1.279       .  A
O2322      C2330   1.259       .  A
O2323      C2329   1.291       .  A
O2324      C2330   1.266       .  A
O2325      C2328   1.275       .  A
O2326      C2327   1.265       .  A
C2327      C2654   1.489       .  S
C2328      C2567   1.475       .  S
C2329      C2554   1.474       .  S
C2330      C2614   1.461       .  S
O2331      C2344   1.262       .  A
O2331     Co2339   1.947       .  S
O2332      C2345   1.252       .  A
O2332     Co2340   1.933       .  S
O2333      C2346   1.280       .  A
O2333     Co2341   2.033       .  S
O2334      C2347   1.252       .  A
O2334     Co2342   1.974       .  S
O2335      C2347   1.259       .  A
O2335     Co2340   1.992       .  S
O2336      C2346   1.265       .  A
O2336     Co2339   1.958       .  S
O2337      C2344   1.272       .  A
O2337     Co2342   2.016       .  S
O2338      C2345   1.264       .  A
O2338     Co2341   2.001       .  S
Co2339     O2343   2.020       .  S
Co2340     O2343   2.093       .  S
Co2341     O2343   1.953       .  S
Co2342     O2343   1.948       .  S
C2344      C2627   1.465       .  S
C2345      C2574   1.466       .  S
C2346      C2667   1.475       .  S
C2347      C2584   1.472       .  S
N2348      H2380   1.038       .  S
N2348      C2353   1.356       .  A
N2348      C2352   1.355       .  A
N2349      C2356   1.349       .  A
N2349      C2357   1.353       .  A
N2350      H2381   1.042       .  S
N2350      C2355   1.348       .  A
N2350      C2354   1.350       .  A
N2351      C2358   1.350       .  A
N2351      C2359   1.354       .  A
C2352      C2360   1.389       .  A
C2352      C2368   1.421       .  A
C2353      C2369   1.421       .  A
C2353      C2361   1.387       .  A
C2354      C2362   1.386       .  A
C2354      C2371   1.407       .  A
C2355      C2370   1.405       .  A
C2355      C2363   1.386       .  A
C2356      C2368   1.418       .  A
C2356      C2364   1.390       .  A
C2357      C2371   1.415       .  A
C2357      C2365   1.384       .  A
C2358      C2366   1.388       .  A
C2358      C2369   1.417       .  A
C2359      C2367   1.384       .  A
C2359      C2370   1.414       .  A
C2360      C2361   1.377       .  A
C2360      H2372   1.081       .  S
C2361      H2373   1.082       .  S
C2362      C2363   1.372       .  A
C2364      C2365   1.374       .  A
C2366      C2367   1.379       .  A
C2366      H2378   1.082       .  S
C2367      H2379   1.082       .  S
C2368      C2677   1.486       .  S
C2369      C2684   1.492       .  S
C2370      C2564   1.493       .  S
C2371      C2557   1.493       .  S
N2382      H2414   1.033       .  S
N2382      C2387   1.355       .  A
N2382      C2386   1.354       .  A
N2383      C2390   1.350       .  A
N2383      C2391   1.350       .  A
N2384      H2415   1.035       .  S
N2384      C2389   1.349       .  A
N2384      C2388   1.354       .  A
N2385      C2392   1.355       .  A
N2385      C2393   1.351       .  A
C2386      C2394   1.388       .  A
C2386      C2402   1.417       .  A
C2387      C2403   1.417       .  A
C2387      C2395   1.386       .  A
C2388      C2396   1.388       .  A
C2388      C2405   1.415       .  A
C2389      C2404   1.412       .  A
C2389      C2397   1.388       .  A
C2390      C2402   1.411       .  A
C2390      C2398   1.387       .  A
C2391      C2405   1.410       .  A
C2391      C2399   1.385       .  A
C2392      C2400   1.384   1_565  A
C2392      C2403   1.412       .  A
C2393      C2401   1.389   1_565  A
C2393      C2404   1.416       .  A
C2394      C2395   1.373       .  A
C2394      H2406   1.081       .  S
C2395      H2407   1.082       .  S
C2396      C2397   1.378       .  A
C2396      H2408   1.082       .  S
C2397      H2409   1.083       .  S
C2398      C2399   1.367       .  A
C2398      H2410   1.081       .  S
C2399      H2411   1.082       .  S
C2400      C2401   1.370       .  A
C2402      C2707   1.482       .  S
C2403      C2697   1.495       .  S
C2404      C2577   1.478       .  S
C2405      C2587   1.485       .  S
N2416      H2448   1.041       .  S
N2416      C2421   1.351       .  A
N2416      C2420   1.357       .  A
N2417      C2424   1.348       .  A
N2417      C2425   1.347       .  A
N2418      H2449   1.041       .  S
N2418      C2423   1.351       .  A
N2418      C2422   1.353       .  A
N2419      C2426   1.353       .  A
N2419      C2427   1.355       .  A
C2420      C2428   1.384       .  A
C2420      C2436   1.414       .  A
C2421      C2437   1.420       .  A
C2421      C2429   1.391       .  A
C2422      C2430   1.387       .  A
C2422      C2439   1.415       .  A
C2423      C2438   1.412       .  A
C2423      C2431   1.386       .  A
C2424      C2436   1.404       .  A
C2424      C2432   1.383       .  A
C2425      C2439   1.411       .  A
C2425      C2433   1.389       .  A
C2426      C2434   1.389       .  A
C2426      C2437   1.419       .  A
C2427      C2435   1.384       .  A
C2427      C2438   1.416       .  A
C2428      C2429   1.372       .  A
C2428      H2440   1.082       .  S
C2429      H2441   1.080       .  S
C2430      C2431   1.375       .  A
C2430      H2442   1.082       .  S
C2431      H2443   1.083       .  S
C2432      C2433   1.373       .  A
C2432      H2444   1.082       .  S
C2433      H2445   1.082       .  S
C2434      C2435   1.376       .  A
C2436      C2727   1.490       .  S
C2437      C2717   1.484       .  S
C2438      C2537   1.493       .  S
C2439      C2544   1.487       .  S
N2450      H2482   1.037       .  S
N2450      C2455   1.351       .  A
N2450      C2454   1.348       .  A
N2451      C2458   1.350       .  A
N2451      C2459   1.351       .  A
N2452      H2483   1.039       .  S
N2452      C2457   1.356       .  A
N2452      C2456   1.356       .  A
N2453      C2460   1.349       .  A
N2453      C2461   1.348       .  A
C2454      C2462   1.389       .  A
C2454      C2470   1.408       .  A
C2455      C2471   1.407       .  A
C2455      C2463   1.387       .  A
C2456      C2464   1.387       .  A
C2456      C2473   1.417       .  A
C2457      C2472   1.416       .  A
C2457      C2465   1.386       .  A
C2458      C2470   1.414       .  A
C2458      C2466   1.388       .  A
C2459      C2473   1.412       .  A
C2459      C2467   1.386       .  A
C2460      C2468   1.386       .  A
C2460      C2471   1.408       .  A
C2461      C2469   1.387       .  A
C2461      C2472   1.411       .  A
C2462      C2463   1.367       .  A
C2462      H2474   1.083       .  S
C2463      H2475   1.083       .  S
C2464      C2465   1.372       .  A
C2464      H2476   1.082       .  S
C2465      H2477   1.082       .  S
C2466      C2467   1.366       .  A
C2468      C2469   1.363       .  A
C2468      H2480   1.082       .  S
C2469      H2481   1.082       .  S
C2470      C2737   1.469       .  S
C2471      C2747   1.471       .  S
C2472      C2524   1.484       .  S
C2473      C2514   1.483       .  S
O2484      C2492   1.260       .  A
O2484     Co2504   1.965       .  S
O2485      C2493   1.287       .  A
O2485     Co2505   2.057       .  S
O2486     Co2506   2.027   1_455  S
O2487      C2495   1.251       .  A
O2487     Co2507   2.001   1_655  S
O2488      C2494   1.270       .  A
O2488     Co2505   1.972       .  S
O2489      C2495   1.249       .  A
O2489     Co2504   1.973       .  S
O2490      C2493   1.271       .  A
O2491      C2492   1.270       .  A
O2491     Co2506   2.016       .  S
C2492      C2607   1.483       .  S
C2493      C2547   1.462       .  S
C2494      C2597   1.488       .  S
C2495      C2527   1.469       .  S
O2496      C2509   1.280       .  A
O2496     Co2504   2.051       .  S
O2497      C2510   1.259       .  A
O2497     Co2505   1.990       .  S
O2498      C2511   1.264       .  A
O2498     Co2506   1.976       .  S
O2499      C2512   1.261       .  A
O2500      C2512   1.282       .  A
O2500     Co2505   2.101       .  S
O2501      C2511   1.266       .  A
O2501     Co2504   1.990       .  S
O2502      C2509   1.280       .  A
O2502     Co2507   1.996   1_655  S
O2503     Co2506   1.973   1_455  S
Co2504     O2508   2.072       .  S
Co2506     O2508   2.062       .  S
Co2507     O2508   1.921   1_455  S
C2509      C2517   1.477       .  S
C2510      C2637   1.479       .  S
C2511      C2647   1.478       .  S
C2512      C2534   1.481       .  S
C2513      C2514   1.406       .  A
C2513      H2519   1.083       .  S
C2515      C2516   1.389       .  A
C2515      H2520   1.084       .  S
C2516      C2517   1.408       .  A
C2516      H2521   1.083       .  S
C2517      C2518   1.404       .  A
C2518      H2522   1.083       .  S
C2523      C2524   1.401       .  A
C2523      C2528   1.395       .  A
C2523      H2529   1.083       .  S
C2524      C2525   1.406       .  A
C2525      C2526   1.393       .  A
C2525      H2530   1.084       .  S
C2526      C2527   1.402       .  A
C2526      H2531   1.083       .  S
C2527      C2528   1.405       .  A
C2528      H2532   1.083       .  S
C2533      C2534   1.406       .  A
C2534      C2535   1.406       .  A
C2535      C2536   1.409       .  A
C2535      H2540   1.083       .  S
C2536      H2541   1.083       .  S
C2537      C2538   1.402       .  A
C2538      H2542   1.084       .  S
C2543      C2544   1.404       .  A
C2543      C2548   1.395       .  A
C2543      H2549   1.083       .  S
C2544      C2545   1.407       .  A
C2545      C2546   1.394       .  A
C2545      H2550   1.083       .  S
C2546      C2547   1.398       .  A
C2546      H2551   1.083       .  S
C2547      C2548   1.402       .  A
C2553      C2554   1.399       .  A
C2553      C2558   1.402       .  A
C2553      H2559   1.083       .  S
C2555      C2556   1.393       .  A
C2555      H2560   1.083       .  S
C2556      C2557   1.399   1_545  A
C2556      H2561   1.083       .  S
C2558      H2562   1.083       .  S
C2563      C2564   1.411       .  A
C2563      C2568   1.398       .  A
C2563      H2569   1.083       .  S
C2565      C2566   1.402       .  A
C2565      H2570   1.083       .  S
C2566      H2571   1.083       .  S
C2567      C2568   1.396       .  A
C2568      H2572   1.083       .  S
C2573      C2574   1.408       .  A
C2573      H2579   1.083       .  S
C2574      C2575   1.402       .  A
C2575      H2580   1.083       .  S
C2576      C2577   1.407       .  A
C2576      H2581   1.083       .  S
C2577      C2578   1.396   1_565  A
C2578      H2582   1.084       .  S
C2583      C2584   1.403       .  A
C2583      C2588   1.391       .  A
C2583      H2589   1.083       .  S
C2584      C2585   1.408       .  A
C2585      C2586   1.400       .  A
C2585      H2590   1.083       .  S
C2586      C2587   1.403       .  A
C2586      H2591   1.083       .  S
C2587      C2588   1.403       .  A
C2588      H2592   1.083       .  S
C2593      C2594   1.402       .  A
C2593      C2598   1.396       .  A
C2593      H2599   1.084       .  S
C2594      C2595   1.403       .  A
C2595      C2596   1.405       .  A
C2595      H2600   1.083       .  S
C2596      C2597   1.410       .  A
C2596      H2601   1.083       .  S
C2597      C2598   1.407       .  A
C2598      H2602   1.083       .  S
C2603      C2604   1.403       .  A
C2603      C2608   1.402       .  A
C2603      H2609   1.083       .  S
C2604      C2605   1.404       .  A
C2605      C2606   1.396       .  A
C2605      H2610   1.084       .  S
C2606      C2607   1.406       .  A
C2606      H2611   1.083       .  S
C2607      C2608   1.409       .  A
C2608      H2612   1.083       .  S
C2613      C2614   1.400       .  A
C2613      C2618   1.390       .  A
C2613      H2619   1.084       .  S
C2614      C2615   1.403       .  A
C2615      C2616   1.401       .  A
C2615      H2620   1.083       .  S
C2616      C2617   1.406       .  A
C2616      H2621   1.083       .  S
C2617      C2618   1.402       .  A
C2618      H2622   1.083       .  S
C2623      C2624   1.412       .  A
C2623      C2628   1.403       .  A
C2623      H2629   1.083       .  S
C2624      C2625   1.402       .  A
C2625      C2626   1.389       .  A
C2625      H2630   1.082       .  S
C2626      C2627   1.403       .  A
C2626      H2631   1.084       .  S
C2627      C2628   1.400       .  A
C2628      H2632   1.083       .  S
C2633      C2634   1.403       .  A
C2633      C2638   1.389       .  A
C2633      H2639   1.084       .  S
C2634      C2635   1.405   1_565  A
C2635      C2636   1.405   1_545  A
C2635      H2640   1.083       .  S
C2636      C2637   1.408       .  A
C2636      H2641   1.083       .  S
C2637      C2638   1.405       .  A
C2638      H2642   1.083       .  S
C2643      C2644   1.402       .  A
C2643      C2648   1.391       .  A
C2643      H2649   1.084       .  S
C2644      C2645   1.405       .  A
C2645      C2646   1.402       .  A
C2645      H2650   1.083   1_565  S
C2646      C2647   1.406       .  A
C2646      H2651   1.083       .  S
C2647      C2648   1.407       .  A
C2648      H2652   1.083       .  S
C2653      C2654   1.408       .  A
C2653      C2658   1.408       .  A
C2653      H2659   1.083       .  S
C2654      C2655   1.406       .  A
C2655      C2656   1.397       .  A
C2655      H2660   1.083       .  S
C2656      C2657   1.405       .  A
C2657      C2658   1.407       .  A
C2658      H2662   1.083       .  S
C2663      C2664   1.406       .  A
C2663      C2668   1.393       .  A
C2663      H2669   1.083       .  S
C2665      C2666   1.410       .  A
C2665      H2670   1.083   1_545  S
C2666      H2671   1.083       .  S
C2667      C2668   1.402       .  A
C2668      H2672   1.084       .  S
C2673      C2674   1.402       .  A
C2673      C2678   1.401       .  A
C2673      H2679   1.083       .  S
C2674      C2675   1.404       .  A
C2675      H2680   1.083       .  S
C2676      C2677   1.401       .  A
C2676      H2681   1.084       .  S
C2678      H2682   1.083       .  S
C2683      C2684   1.407       .  A
C2683      C2688   1.403       .  A
C2683      H2689   1.083       .  S
C2684      C2685   1.403       .  A
C2685      C2686   1.397       .  A
C2685      H2690   1.083       .  S
C2686      C2687   1.406       .  A
C2686      H2691   1.083       .  S
C2687      C2688   1.404       .  A
C2688      H2692   1.083       .  S
C2693      C2694   1.407       .  A
C2693      H2699   1.083       .  S
C2694      C2695   1.408       .  A
C2695      C2696   1.392       .  A
C2695      H2700   1.083       .  S
C2697      C2698   1.409   1_565  A
C2698      H2702   1.083       .  S
C2703      C2704   1.402       .  A
C2703      C2708   1.394       .  A
C2703      H2709   1.083       .  S
C2704      C2705   1.402       .  A
C2705      C2706   1.398       .  A
C2705      H2710   1.083       .  S
C2706      C2707   1.405       .  A
C2706      H2711   1.083       .  S
C2707      C2708   1.402       .  A
C2708      H2712   1.083       .  S
C2713      C2714   1.406       .  A
C2714      C2715   1.401       .  A
C2715      C2716   1.408       .  A
C2715      H2720   1.082       .  S
C2716      H2721   1.083       .  S
C2717      C2718   1.395       .  A
C2718      H2722   1.084       .  S
C2723      C2724   1.406       .  A
C2723      C2728   1.406       .  A
C2723      H2729   1.083       .  S
C2724      C2725   1.408       .  A
C2725      C2726   1.393       .  A
C2725      H2730   1.083       .  S
C2726      C2727   1.401       .  A
C2726      H2731   1.084       .  S
C2727      C2728   1.407       .  A
C2728      H2732   1.083       .  S
C2733      C2734   1.408       .  A
C2733      H2739   1.083       .  S
C2734      C2735   1.397       .  A
C2735      H2740   1.083       .  S
C2736      C2737   1.404       .  A
C2736      H2741   1.083       .  S
C2737      C2738   1.396       .  A
C2738      H2742   1.084       .  S
C2743      C2744   1.406       .  A
C2743      C2748   1.385       .  A
C2743      H2749   1.082       .  S
C2744      C2745   1.404       .  A
C2745      C2746   1.398       .  A
C2745      H2750   1.083       .  S
C2746      C2747   1.402       .  A
C2746      H2751   1.083       .  S
C2747      C2748   1.396       .  A
C2748      H2752   1.084       .  S
C2753      C2754   1.406       .  A
C2753      C2758   1.397       .  A
C2753      H2759   1.083       .  S
C2754      C2755   1.407       .  A
C2755      C2756   1.408       .  A
C2755      H2760   1.083       .  S
C2756      C2757   1.410       .  A
C2756      H2761   1.083       .  S
C2757      C2758   1.406       .  A
C2758      H2762   1.083       .  S
C2763      C2764   1.405       .  A
C2763      C2768   1.394       .  A
C2763      H2769   1.084       .  S
C2764      C2765   1.400       .  A
C2765      C2766   1.398       .  A
C2765      H2770   1.083       .  S
C2766      C2767   1.409       .  A
C2766      H2771   1.083       .  S
C2767      C2768   1.404       .  A
C2768      H2772   1.083       .  S
C2773      C2774   1.400       .  A
C2773      C2778   1.387       .  A
C2773      H2779   1.084       .  S
C2774      C2775   1.398       .  A
C2775      C2776   1.392       .  A
C2775      H2780   1.083       .  S
C2776      C2777   1.406       .  A
C2776      H2781   1.083       .  S
C2777      C2778   1.403       .  A
C2778      H2782   1.083       .  S
C2783      C2784   1.401       .  A
C2783      C2788   1.388       .  A
C2783      H2789   1.084       .  S
C2784      C2785   1.407       .  A
C2785      C2786   1.405       .  A
C2785      H2790   1.083       .  S
C2786      C2787   1.406       .  A
C2786      H2791   1.083       .  S
C2787      C2788   1.408       .  A
C2788      H2792   1.083       .  S
C2793      C2794   1.403       .  A
C2793      C2798   1.401       .  A
C2794      C2795   1.402       .  A
C2795      C2796   1.391       .  A
C2795      H2800   1.084       .  S
C2796      C2797   1.405       .  A
C2796      H2801   1.083       .  S
C2797      C2798   1.408       .  A
C2803      C2804   1.405       .  A
C2803      C2808   1.393       .  A
C2803      H2809   1.083       .  S
C2804      C2805   1.408       .  A
C2805      C2806   1.407       .  A
C2806      C2807   1.409       .  A
C2806      H2811   1.083       .  S
C2807      C2808   1.406       .  A
C2808      H2812   1.083       .  S
C2813      C2814   1.406       .  A
C2813      C2818   1.394       .  A
C2813      H2819   1.083       .  S
C2814      C2815   1.410       .  A
C2815      C2816   1.412       .  A
C2816      C2817   1.410       .  A
C2816      H2821   1.083       .  S
C2817      C2818   1.405       .  A
C2818      H2822   1.083       .  S
C2823      C2824   1.404       .  A
C2823      C2828   1.396       .  A
C2823      H2829   1.083       .  S
C2824      C2825   1.404       .  A
C2825      C2826   1.406       .  A
C2825      H2830   1.083       .  S
C2826      C2827   1.411       .  A
C2826      H2831   1.083       .  S
C2827      C2828   1.406       .  A
C2828      H2832   1.083       .  S
