geometry optimzed in LAMMPS
_audit_creation_date              2020-11-30 
_audit_creation_method            'lammps2cif' 
_symmetry_space_group_name_H-M    'P1' 
_symmetry_Int_Tables_number       1 
_symmetry_cell_setting            triclinic 
loop_ 
_symmetry_equiv_pos_as_xyz 
  x,y,z 
_cell_length_a                    48.83790943 
_cell_length_b                    48.703088923673 
_cell_length_c                    87.44044655139504 
_cell_angle_alpha                 89.92954720146984 
_cell_angle_beta                  89.97484941657056 
_cell_angle_gamma                 90.00268990741245 
loop_ 
_atom_site_label 
_atom_site_type_symbol 
_atom_site_fract_x 
_atom_site_fract_y 
_atom_site_fract_z 
_atom_site_charge 
O1          O  0.45613484  0.40722021  0.91960923    -0.82400
C2          C  0.04566952  0.33746285  0.90546840     0.97000
O3          O  0.03202239  0.35220344  0.89640436    -0.71500
O4          O  0.47991286  0.34167335  0.89766847    -0.75100
Al5        Al  0.00039691  0.37445742  0.89879619     1.49000
C6          C  0.45732298  0.33688741  0.90409237     0.92200
O7          O  0.47741648  0.34228771  0.94053307    -0.81300
O8          O  0.02392529  0.40709666  0.94018791    -0.74900
Al9        Al  0.46879702  0.37466495  0.92941093     1.90100
O10         O  0.02020108  0.35171369  0.94583985    -0.74000
O11         O  0.05150067  0.39743598  0.91505523    -0.73800
O12         O  0.04472838  0.34171027  0.91968437    -0.79500
O13         O  0.02092140  0.40724306  0.89755022    -0.77700
O14         O  0.00049349  0.37452137  0.91921051    -1.13800
O15         O  0.46865862  0.39664237  0.89635155    -0.73000
C16         C  0.45492416  0.41132722  0.90538970     0.97700
C17         C  0.99881535  0.33776471  0.94819367     0.94100
Al18       Al  0.03232103  0.37447427  0.92931877     1.55600
O19         O  0.44959248  0.35118864  0.91536317    -0.77600
C20         C  0.04365272  0.41184592  0.90385363     0.98300
C21         C  0.50252505  0.41201501  0.94777699     0.93200
O22         O  0.48107738  0.39802215  0.94563682    -0.82900
O23         O  0.21771442  0.16912530  0.83318390    -0.82400
C24         C  0.28649919  0.07874993  0.84735308     0.97000
O25         O  0.27198558  0.09264386  0.85639646    -0.71500
O26         O  0.28349516  0.14475186  0.85492639    -0.75100
Al27       Al  0.25041342  0.12481803  0.85396818     1.49000
C28         C  0.28803840  0.16764712  0.84870480     0.92200
O29         O  0.28241356  0.14796241  0.81238683    -0.81300
O30         O  0.21767446  0.10168019  0.81253878    -0.74900
Al31       Al  0.25016679  0.15659787  0.82341412     1.90100
O32         O  0.27303879  0.10501157  0.80707192    -0.74000
O33         O  0.22659936  0.07402689  0.83773929    -0.73800
O34         O  0.28238681  0.07993810  0.83313884    -0.79500
O35         O  0.21737063  0.10484738  0.85526014    -0.77700
O36         O  0.25019392  0.12475393  0.83357050    -1.13800
O37         O  0.22886651  0.15708432  0.85645828    -0.73000
C38         C  0.21394447  0.17060184  0.84742073     0.97700
C39         C  0.28698819  0.12648535  0.80476933     0.94100
Al40       Al  0.24995074  0.09290658  0.82347572     1.55600
O41         O  0.27349207  0.17572112  0.83759985    -0.77600
C42         C  0.21242607  0.08210206  0.84898780     0.98300
C43         C  0.21308171  0.12304966  0.80482166     0.93200
O44         O  0.22705725  0.14451703  0.80701223    -0.82900
O45         O  0.29451858  0.40684005  0.58344747    -0.82400
C46         C  0.20385412  0.33887143  0.59811463     0.97000
O47         O  0.21793950  0.35337219  0.60705326    -0.71500
O48         O  0.26987791  0.34113437  0.60546673    -0.75100
Al49       Al  0.25021533  0.37457789  0.60443555     1.49000
C50         C  0.29252903  0.33633820  0.59908112     0.92200
O51         O  0.27269654  0.34188626  0.56287773    -0.81300
O52         O  0.22718895  0.40718185  0.56276530    -0.74900
Al53       Al  0.28166660  0.37427971  0.57380739     1.90100
O54         O  0.22983361  0.35150516  0.55774404    -0.74000
O55         O  0.19977936  0.39889048  0.58808260    -0.73800
O56         O  0.20497996  0.34281836  0.58387808    -0.79500
O57         O  0.23055560  0.40794316  0.60563420    -0.77700
O58         O  0.24998930  0.37462724  0.58402258    -1.13800
O59         O  0.28260458  0.39581793  0.60676343    -0.73000
C60         C  0.29622531  0.41056214  0.59767960     0.97700
C61         C  0.25108676  0.33733018  0.55540848     0.94100
Al62       Al  0.21817969  0.37505653  0.57397489     1.55600
O63         O  0.30054989  0.35093578  0.58798203    -0.77600
C64         C  0.20796661  0.41311746  0.59927458     0.98300
C65         C  0.24860192  0.41144008  0.55507024     0.93200
O66         O  0.26983079  0.39727960  0.55739422    -0.82900
O67         O  0.03227239  0.16864172  0.66990330    -0.82400
C68         C  0.46410306  0.07813423  0.65557561     0.97000
O69         O  0.47873341  0.09196900  0.64653896    -0.71500
O70         O  0.46677505  0.14401255  0.64792995    -0.75100
Al71       Al  0.00001705  0.12431155  0.64900130     1.49000
C72         C  0.46211678  0.16688521  0.65412629     0.92200
O73         O  0.46746119  0.14690715  0.69044379    -0.81300
O74         O  0.03274102  0.10108466  0.69042922    -0.74900
Al75       Al  0.49976600  0.15584933  0.67955319     1.90100
O76         O  0.47738415  0.10414284  0.69595826    -0.74000
O77         O  0.02379285  0.07349886  0.66520355    -0.73800
O78         O  0.46804380  0.07935522  0.66980446    -0.79500
O79         O  0.03323694  0.10461695  0.64783736    -0.77700
O80         O  0.50005957  0.12412252  0.66939287    -1.13800
O81         O  0.02128777  0.15679806  0.64658502    -0.73000
C82         C  0.03603575  0.17037290  0.65566879     0.97700
C83         C  0.46325265  0.12550143  0.69821928     0.94100
Al84       Al  0.00044269  0.09223889  0.67948548     1.55600
O85         O  0.47650731  0.17493470  0.66529089    -0.77600
C86         C  0.03814432  0.08179548  0.65406753     0.98300
C87         C  0.03679377  0.12236000  0.69830058     0.93200
O88         O  0.02266598  0.14371802  0.69603849    -0.82900
O89         O  0.29883664  0.10088534  0.41528847    -0.82400
C90         C  0.20573995  0.16320329  0.40454988     0.97000
O91         O  0.22830200  0.15802579  0.39819628    -0.71500
O92         O  0.28036409  0.14649759  0.39694263    -0.75100
Al93       Al  0.24801975  0.12477787  0.39933234     1.49000
C94         C  0.29405622  0.16101818  0.40612963     0.92200
O95         O  0.26838294  0.14656854  0.44644662    -0.81300
O96         O  0.22836594  0.10194911  0.44624379    -0.74900
Al97       Al  0.27993724  0.12387108  0.42975721     1.90100
O98         O  0.22607089  0.15764023  0.44094110    -0.74000
O99         O  0.20298544  0.09338294  0.42040040    -0.73800
O100        O  0.19778677  0.14924224  0.41591417    -0.79500
O101        O  0.21563712  0.10325599  0.39703227    -0.77700
O102        O  0.24813373  0.12472311  0.41971557    -1.13800
O103        O  0.26774107  0.09138993  0.39806679    -0.73000
C104        C  0.29066352  0.08661368  0.40411175     0.97700
C105        C  0.24749495  0.16131920  0.44869332     0.94100
Al106      Al  0.21653161  0.12550724  0.42999949     1.55600
O107        O  0.29276816  0.15659536  0.42032415    -0.77600
C108        C  0.20148529  0.08917157  0.40621700     0.98300
C109        C  0.24924135  0.08696937  0.44807368     0.93200
O110        O  0.27067526  0.09118737  0.44036217    -0.82900
O111        O  0.46660982  0.41933294  0.33310360    -0.82400
C112        C  0.03495378  0.32887429  0.34735547     0.97000
O113        O  0.02036843  0.34248323  0.35654962    -0.71500
O114        O  0.03148813  0.39474499  0.35543078    -0.75100
Al115      Al  0.49845961  0.37470112  0.35420506     1.49000
C116        C  0.03629891  0.41753926  0.34917533     0.92200
O117        O  0.03157365  0.39706268  0.31281486    -0.81300
O118        O  0.46533257  0.35189621  0.31294065    -0.74900
Al119      Al  0.99912860  0.40634305  0.32361066     1.90100
O120        O  0.02043658  0.35474110  0.30708105    -0.74000
O121        O  0.47511789  0.32367522  0.33809996    -0.73800
O122        O  0.03055232  0.33011171  0.33316098    -0.79500
O123        O  0.46541868  0.35464933  0.35540304    -0.77700
O124        O  0.49849506  0.37463248  0.33381808    -1.13800
O125        O  0.47657332  0.40698778  0.35651796    -0.73000
C126        C  0.46214061  0.42069210  0.34728338     0.97700
C127        C  0.03512749  0.37572010  0.30489891     0.94100
Al128      Al  0.49790449  0.34281663  0.32369521     1.55600
O129        O  0.02224739  0.42541772  0.33785017    -0.77600
C130        C  0.46089176  0.33166804  0.34932408     0.98300
C131        C  0.46153096  0.37332852  0.30509105     0.93200
O132        O  0.47623058  0.39434170  0.30717875    -0.82900
O133        O  0.04355493  0.15675283  0.08364087    -0.82400
C134        C  0.45392849  0.08700643  0.09753477     0.97000
O135        O  0.46737348  0.10180665  0.10666033    -0.71500
O136        O  0.01953230  0.09087275  0.10529942    -0.75100
Al137      Al  0.49935136  0.12384351  0.10432589     1.49000
C138        C  0.04223231  0.08622532  0.09896609     0.92200
O139        O  0.02274752  0.09226125  0.06258588    -0.81300
O140        O  0.47606321  0.15693116  0.06294527    -0.74900
Al141      Al  0.03113570  0.12442239  0.07378896     1.90100
O142        O  0.47991075  0.10143957  0.05723935    -0.74000
O143        O  0.44835417  0.14707343  0.08818781    -0.73800
O144        O  0.45532616  0.09121719  0.08332468    -0.79500
O145        O  0.47911051  0.15676762  0.10561299    -0.77700
O146        O  0.49938165  0.12415725  0.08391904    -1.13800
O147        O  0.03133745  0.14583237  0.10691699    -0.73000
C148        C  0.04489450  0.16069368  0.09785115     0.97700
C149        C  0.50141174  0.08761704  0.05491665     0.94100
Al150      Al  0.46764059  0.12417171  0.07378597     1.55600
O151        O  0.05021836  0.10083435  0.08785195    -0.77600
C152        C  0.45620500  0.16128391  0.09948187     0.98300
C153        C  0.99752262  0.16186485  0.05539077     0.93200
O154        O  0.01896035  0.14789290  0.05759379    -0.82900
O155        O  0.22520648  0.32319800  0.16575012    -0.82400
C156        C  0.28668005  0.41692732  0.15449953     0.97000
O157        O  0.28237529  0.39385857  0.14847603    -0.71500
O158        O  0.27132893  0.34159314  0.14737936    -0.75100
Al159      Al  0.24936705  0.37381055  0.14942483     1.49000
C160        C  0.28546649  0.32778115  0.15669796     0.92200
O161        O  0.27065657  0.35470395  0.19666443    -0.81300
O162        O  0.22588270  0.39412730  0.19628660    -0.74900
Al163      Al  0.24800522  0.34236599  0.18010998     1.90100
O164        O  0.28108910  0.39722136  0.19077513    -0.74000
O165        O  0.21637263  0.41833859  0.16999591    -0.73800
O166        O  0.27203018  0.42507335  0.16552644    -0.79500
O167        O  0.22756673  0.40602086  0.14675459    -0.77700
O168        O  0.24876320  0.37401134  0.16979948    -1.13800
O169        O  0.21640844  0.35375812  0.14800981    -0.73000
C170        C  0.21143279  0.33103687  0.15430524     0.97700
C171        C  0.28508945  0.37595061  0.19870687     0.94100
Al172      Al  0.24883506  0.40595297  0.17979258     1.55600
O173        O  0.28068528  0.32911028  0.17085084    -0.77600
C174        C  0.21260835  0.41964338  0.15574729     0.98300
C175        C  0.21125671  0.37308138  0.19840444     0.93200
O176        O  0.21529109  0.35164672  0.19065192    -0.82900
C177        C  0.18988491  0.31307272  0.14793582    -0.04000
C178        C  0.17231101  0.32269636  0.13635216    -0.09700
C179        C  0.15274208  0.30527124  0.12988603    -0.17400
C180        C  0.15057375  0.27805643  0.13488550     0.24800
C181        C  0.16780722  0.26838857  0.14647668    -0.19000
C182        C  0.18729726  0.28578320  0.15299969    -0.08000
C183        C  0.13100969  0.25981612  0.12801360    -0.14400
C184        C  0.11521097  0.24366092  0.12247212    -0.14100
C185        C  0.09699445  0.22345591  0.11617338     0.24700
C186        C  0.09748265  0.21771262  0.10049662    -0.19500
C187        C  0.08035760  0.19743481  0.09446060    -0.08000
C188        C  0.06263184  0.18258510  0.10407794    -0.04100
C189        C  0.06216831  0.18866335  0.11981114    -0.09400
C190        C  0.07924247  0.20897808  0.12580273    -0.17000
H191        H  0.17379191  0.34362196  0.13222727     0.11100
H192        H  0.13947859  0.31294672  0.12091787     0.10400
H193        H  0.16631832  0.24732601  0.15039568     0.10300
H194        H  0.20061660  0.27773686  0.16183161     0.10900
H195        H  0.11123518  0.22876436  0.09296076     0.10900
H196        H  0.08119055  0.19320107  0.08231369     0.10900
H197        H  0.04867223  0.17766981  0.12750874     0.11000
H198        H  0.07874536  0.21324605  0.13795989     0.09900
C199        C  0.43809328  0.18277356  0.10592831    -0.04000
C200        C  0.44637758  0.19802100  0.11879341    -0.09700
C201        C  0.42877583  0.21728951  0.12541350    -0.17400
C202        C  0.40267773  0.22164028  0.11928120     0.24800
C203        C  0.39440647  0.20690253  0.10633635    -0.19000
C204        C  0.41197938  0.18759946  0.09969028    -0.08000
C205        C  0.38419461  0.24080361  0.12643798    -0.14400
C206        C  0.36822243  0.25650026  0.13231162    -0.14100
C207        C  0.34829215  0.27502639  0.13874244     0.24700
C208        C  0.34110114  0.27337064  0.15423786    -0.19500
C209        C  0.32088624  0.29073932  0.16022606    -0.08000
C210        C  0.30753628  0.30985987  0.15073336    -0.04100
C211        C  0.31520829  0.31156430  0.13523962    -0.09400
C212        C  0.33543205  0.29431275  0.12931618    -0.17000
H213        H  0.46633807  0.19481683  0.12388134     0.11100
H214        H  0.43542188  0.22858086  0.13541491     0.10400
H215        H  0.37425604  0.21011684  0.10147608     0.10300
H216        H  0.40498373  0.17621573  0.08980442     0.10900
H217        H  0.35090936  0.25848813  0.16164565     0.10900
H218        H  0.31544083  0.28894298  0.17219281     0.10900
H219        H  0.30548835  0.32618444  0.12764233     0.11000
H220        H  0.34083105  0.29582800  0.11732301     0.09900
C221        C  0.30847316  0.43486259  0.14826798    -0.04000
C222        C  0.31408853  0.46050597  0.15496070    -0.09700
C223        C  0.33384673  0.47789721  0.14858809    -0.17400
C224        C  0.34820341  0.46990932  0.13545945     0.24800
C225        C  0.34300552  0.44429637  0.12885045    -0.19000
C226        C  0.32331222  0.42686212  0.13520841    -0.08000
C227        C  0.36773467  0.48827083  0.12854096    -0.14400
C228        C  0.38355944  0.00419610  0.12273756    -0.14100
C229        C  0.40192147  0.02419576  0.11623980     0.24700
C230        C  0.40413340  0.02724496  0.10034756    -0.19500
C231        C  0.42121663  0.04752541  0.09414985    -0.08000
C232        C  0.43625970  0.06498312  0.10381370    -0.04100
C233        C  0.43413487  0.06144356  0.11975749    -0.09400
C234        C  0.41707737  0.04124588  0.12590045    -0.17000
H235        H  0.30303264  0.46725025  0.16501631     0.11100
H236        H  0.33770797  0.49769255  0.15379933     0.10400
H237        H  0.35396577  0.43791612  0.11868142     0.10300
H238        H  0.31944810  0.40728302  0.12976315     0.10900
H239        H  0.39246966  0.01413721  0.09276009     0.10900
H240        H  0.42249891  0.04966521  0.08184154     0.10900
H241        H  0.44547126  0.07446912  0.12753374     0.11000
H242        H  0.41551688  0.03910605  0.13820755     0.09900
C243        C  0.05995651  0.06403011  0.10493309    -0.04000
C244        C  0.05205968  0.04897844  0.11796235    -0.09700
C245        C  0.06949175  0.02915696  0.12419145    -0.17400
C246        C  0.09496981  0.02404146  0.11746552     0.24800
C247        C  0.10273282  0.03841352  0.10428365    -0.19000
C248        C  0.08534586  0.05828849  0.09803826    -0.08000
C249        C  0.11355965  0.00478722  0.12438947    -0.14400
C250        C  0.12980515  0.98934767  0.13020238    -0.14100
C251        C  0.15008452  0.47143700  0.13675716     0.24700
C252        C  0.16697428  0.45595372  0.12716424    -0.19500
C253        C  0.18718954  0.43903895  0.13338328    -0.08000
C254        C  0.19085584  0.43739627  0.14932741    -0.04100
C255        C  0.17367857  0.45292178  0.15891335    -0.09400
C256        C  0.15341185  0.46986094  0.15264450    -0.17000
H257        H  0.03262346  0.05285749  0.12352070     0.11100
H258        H  0.06327645  0.01813358  0.13438917     0.10400
H259        H  0.12240967  0.03456793  0.09897458     0.10300
H260        H  0.09196102  0.06943545  0.08796933     0.10900
H261        H  0.16462150  0.45706771  0.11485622     0.10900
H262        H  0.20003682  0.42734544  0.12567729     0.10900
H263        H  0.17597045  0.45206664  0.17122282     0.11000
H264        H  0.14045861  0.48182575  0.16017212     0.09900
C265        C  0.05605642  0.37527146  0.29264719    -0.04000
C266        C  0.07288675  0.39820424  0.28992769    -0.09700
C267        C  0.09193418  0.39791908  0.27796867    -0.17400
C268        C  0.09437670  0.37476259  0.26858926     0.24800
C269        C  0.07784100  0.35181016  0.27126887    -0.19000
C270        C  0.05883262  0.35202427  0.28321401    -0.08000
C271        C  0.11380875  0.37451389  0.25620781    -0.14400
C272        C  0.13017525  0.37422014  0.24587947    -0.14100
C273        C  0.15006073  0.37407757  0.23372174     0.24700
C274        C  0.15219774  0.35141878  0.22395187    -0.19500
C275        C  0.17192879  0.35112113  0.21233937    -0.08000
C276        C  0.18973667  0.37355533  0.21034638    -0.04100
C277        C  0.18723271  0.39632860  0.22015055    -0.09400
C278        C  0.16756451  0.39653923  0.23176251    -0.17000
H279        H  0.07122234  0.41640566  0.29696878     0.11100
H280        H  0.10466968  0.41579294  0.27599873     0.10400
H281        H  0.07956297  0.33377589  0.26408691     0.10300
H282        H  0.04614747  0.33405483  0.28496863     0.10900
H283        H  0.13873255  0.33391859  0.22536775     0.10900
H284        H  0.17332259  0.33330888  0.20497886     0.10900
H285        H  0.20066956  0.41389136  0.21896180     0.11000
H286        H  0.16611747  0.41416669  0.23926935     0.09900
C287        C  0.44023686  0.37393035  0.29303817    -0.04000
C288        C  0.42721595  0.34966097  0.28824253    -0.09700
C289        C  0.40802941  0.35030694  0.27635240    -0.17400
C290        C  0.40152120  0.37519286  0.26917108     0.24800
C291        C  0.41413951  0.39946441  0.27399913    -0.19000
C292        C  0.43338566  0.39885707  0.28582167    -0.08000
C293        C  0.38203676  0.37584060  0.25680071    -0.14400
C294        C  0.36568385  0.37626836  0.24645859    -0.14100
C295        C  0.34587435  0.37620212  0.23424679     0.24700
C296        C  0.34031603  0.40029186  0.22605678    -0.19500
C297        C  0.32075127  0.40019549  0.21436274    -0.08000
C298        C  0.30643269  0.37597622  0.21074240    -0.04100
C299        C  0.31229523  0.35185107  0.21898687    -0.09400
C300        C  0.33189141  0.35198860  0.23063629    -0.17000
H301        H  0.43215297  0.33014810  0.29351451     0.11100
H302        H  0.39839250  0.33138112  0.27270265     0.10400
H303        H  0.40923054  0.41885110  0.26856086     0.10300
H304        H  0.44298472  0.41791406  0.28927062     0.10900
H305        H  0.35099490  0.41917099  0.22875798     0.10900
H306        H  0.31665656  0.41912288  0.20826567     0.10900
H307        H  0.30166770  0.33286792  0.21648065     0.11000
H308        H  0.33603144  0.33322058  0.23688790     0.09900
C309        C  0.18805888  0.18514608  0.39826795    -0.04000
C310        C  0.19569414  0.19913082  0.38483048    -0.09700
C311        C  0.17820840  0.21854981  0.37827050    -0.17400
C312        C  0.15293726  0.22432969  0.38506638     0.24800
C313        C  0.14540928  0.21099496  0.39862477    -0.19000
C314        C  0.16284945  0.19151287  0.40520121    -0.08000
C315        C  0.13441544  0.24337479  0.37791501    -0.14400
C316        C  0.11829777  0.25886403  0.37203566    -0.14100
C317        C  0.09812561  0.27703606  0.36560957     0.24700
C318        C  0.08324303  0.29437906  0.37524731    -0.19500
C319        C  0.06287461  0.31135601  0.36924992    -0.08000
C320        C  0.05706390  0.31123466  0.35348368    -0.04100
C321        C  0.07238868  0.29400744  0.34381831    -0.09400
C322        C  0.09278160  0.27695859  0.34987089    -0.17000
H323        H  0.21495697  0.19470412  0.37921205     0.11100
H324        H  0.18423733  0.22877071  0.36778314     0.10400
H325        H  0.12589368  0.21536874  0.40399204     0.10300
H326        H  0.15641568  0.18115194  0.41556289     0.10900
H327        H  0.08721289  0.29460372  0.38743913     0.10900
H328        H  0.05157242  0.32447598  0.37699747     0.10900
H329        H  0.06843509  0.29349992  0.33163636     0.11000
H330        H  0.10419265  0.26356871  0.34231061     0.09900
C331        C  0.43939562  0.31357235  0.35570890    -0.04000
C332        C  0.42218294  0.32290011  0.36752493    -0.09700
C333        C  0.40283014  0.30531731  0.37409817    -0.17400
C334        C  0.40045730  0.27821667  0.36897336     0.24800
C335        C  0.41723564  0.26886798  0.35708814    -0.19000
C336        C  0.43654758  0.28642582  0.35046726    -0.08000
C337        C  0.38111713  0.25983867  0.37602755    -0.14400
C338        C  0.36528537  0.24382027  0.38173339    -0.14100
C339        C  0.34674340  0.22378676  0.38801826     0.24700
C340        C  0.33080668  0.20775394  0.37819972    -0.19500
C341        C  0.31350088  0.18755148  0.38413404    -0.08000
C342        C  0.31192336  0.18301915  0.40001428    -0.04100
C343        C  0.32772909  0.19950110  0.40983622    -0.09400
C344        C  0.34505926  0.21975247  0.40385409    -0.17000
H345        H  0.42383879  0.34370000  0.37179088     0.11100
H346        H  0.38990818  0.31278072  0.38327049     0.10400
H347        H  0.41556454  0.24792325  0.35303190     0.10300
H348        H  0.44953481  0.27860708  0.34142431     0.10900
H349        H  0.33194031  0.21069554  0.36592928     0.10900
H350        H  0.30153195  0.17531949  0.37625434     0.10900
H351        H  0.32687823  0.19659854  0.42210828     0.11000
H352        H  0.35731285  0.23207396  0.41156035     0.09900
C353        C  0.30846785  0.06476600  0.39775170    -0.04000
C354        C  0.29863994  0.04690239  0.38635577    -0.09700
C355        C  0.31595162  0.02731330  0.37974476    -0.17400
C356        C  0.34331172  0.02536158  0.38439008     0.24800
C357        C  0.35310894  0.04268694  0.39592336    -0.19000
C358        C  0.33582340  0.06220627  0.40258967    -0.08000
C359        C  0.36159885  0.00612682  0.37712002    -0.14400
C360        C  0.37788707  0.49065991  0.37131979    -0.14100
C361        C  0.39851459  0.47264896  0.36511275     0.24700
C362        C  0.41572631  0.45816374  0.37503256    -0.19500
C363        C  0.43630331  0.44122226  0.36920168    -0.08000
C364        C  0.44007125  0.43854893  0.35331228    -0.04100
C365        C  0.42258061  0.45305489  0.34338844    -0.09400
C366        C  0.40192563  0.47000396  0.34926834    -0.17000
H367        H  0.27765510  0.04825970  0.38242975     0.06300
H368        H  0.30809541  0.01395775  0.37087103     0.10400
H369        H  0.37423453  0.04135506  0.39962960     0.10300
H370        H  0.34403753  0.07565086  0.41131156     0.10900
H371        H  0.41334584  0.46008616  0.38730654     0.10900
H372        H  0.44937167  0.43033912  0.37716481     0.10900
H373        H  0.42488910  0.45135291  0.33110733     0.11000
H374        H  0.38874404  0.48114828  0.34147017     0.09900
C375        C  0.05785504  0.43561013  0.35550810    -0.04000
C376        C  0.07260573  0.42773381  0.36863023    -0.09700
C377        C  0.09156760  0.44564031  0.37525193    -0.17400
C378        C  0.09607233  0.47158075  0.36883918     0.24800
C379        C  0.08201718  0.47932585  0.35557316    -0.19000
C380        C  0.06303690  0.46147183  0.34893391    -0.08000
C381        C  0.11453932  0.99057371  0.37606064    -0.14400
C382        C  0.12962179  0.00712544  0.38188067    -0.14100
C383        C  0.14764385  0.02756565  0.38816110     0.24700
C384        C  0.16378298  0.04341854  0.37833298    -0.19500
C385        C  0.18128813  0.06340104  0.38424764    -0.08000
C386        C  0.18289765  0.06785375  0.40011953    -0.04100
C387        C  0.16655613  0.05185871  0.40994863    -0.09400
C388        C  0.14901213  0.03182143  0.40398235    -0.17000
H389        H  0.06912990  0.40794915  0.37395344     0.11100
H390        H  0.10239714  0.43941583  0.38549784     0.10400
H391        H  0.08541949  0.49933941  0.35049203     0.10300
H392        H  0.05208016  0.46811850  0.33882117     0.10900
H393        H  0.16282991  0.04034175  0.36607267     0.10900
H394        H  0.19355483  0.07537393  0.37636461     0.10900
H395        H  0.16731426  0.05483409  0.42221336     0.11000
H396        H  0.13653244  0.01968494  0.41168934     0.09900
C397        C  0.24878053  0.43262272  0.54290299    -0.04000
C398        C  0.27258272  0.43729208  0.53418603    -0.09700
C399        C  0.27239130  0.45617195  0.52213250    -0.17400
C400        C  0.24845996  0.47065128  0.51862448     0.24800
C401        C  0.22482913  0.46654202  0.52740137    -0.19000
C402        C  0.22496540  0.44766739  0.53947466    -0.08000
C403        C  0.24807772  0.48943645  0.50590038    -0.14400
C404        C  0.24788665  0.00519477  0.49525153    -0.14100
C405        C  0.24788832  0.02457652  0.48280731     0.24700
C406        C  0.22382647  0.03854167  0.47894113    -0.19500
C407        C  0.22415327  0.05850401  0.46743980    -0.08000
C408        C  0.24859928  0.06474652  0.45963621    -0.04100
C409        C  0.27252432  0.05009252  0.46333174    -0.09400
C410        C  0.27215627  0.03018154  0.47487118    -0.17000
H411        H  0.29127366  0.42610068  0.53654405     0.11100
H412        H  0.29082835  0.45925953  0.51544915     0.10400
H413        H  0.20621362  0.97771423  0.52481200     0.10300
H414        H  0.20633327  0.44457333  0.54597169     0.10900
H415        H  0.20490512  0.03430515  0.48497522     0.10900
H416        H  0.20534208  0.06927810  0.46479304     0.10900
H417        H  0.29163950  0.05437491  0.45751734     0.11000
H418        H  0.29089288  0.51946033  0.47776138     0.09900
C419        C  0.25061384  0.31565806  0.54353232    -0.04000
C420        C  0.22620644  0.30973053  0.53563770    -0.09700
C421        C  0.22587081  0.29014507  0.52396847    -0.17400
C422        C  0.24988460  0.27620732  0.52000030     0.24800
C423        C  0.27420377  0.28167553  0.52791264    -0.19000
C424        C  0.27458813  0.30124944  0.53962153    -0.08000
C425        C  0.24960783  0.25668129  0.50763613    -0.14400
C426        C  0.24923501  0.24057956  0.49716145    -0.14100
C427        C  0.24886734  0.22128838  0.48468431     0.24700
C428        C  0.27315278  0.20858608  0.47998882    -0.19500
C429        C  0.27276749  0.18932737  0.46814318    -0.08000
C430        C  0.24804969  0.18257660  0.46078514    -0.04100
C431        C  0.22379372  0.19576218  0.46542170    -0.09400
C432        C  0.22421551  0.21493894  0.47732299    -0.17000
H433        H  0.20738386  0.32040037  0.53838061     0.11100
H434        H  0.20692209  0.28605994  0.51794410     0.10400
H435        H  0.29291990  0.27099538  0.52493952     0.10300
H436        H  0.29370237  0.30535262  0.54546205     0.10900
H437        H  0.29236439  0.21340007  0.48556926     0.10900
H438        H  0.29179877  0.17962327  0.46480004     0.10900
H439        H  0.20443226  0.19095097  0.46001813     0.11000
H440        H  0.20528890  0.22465207  0.48085796     0.09900
C441        C  0.05751596  0.18852690  0.64933624    -0.04000
C442        C  0.07509845  0.20341481  0.65898795    -0.09700
C443        C  0.09512702  0.22071410  0.65277654    -0.17400
C444        C  0.09775510  0.22330312  0.63688520     0.24800
C445        C  0.08047362  0.20843161  0.62722707    -0.19000
C446        C  0.06051699  0.19115575  0.63338489    -0.08000
C447        C  0.11758133  0.24176007  0.63038619    -0.14400
C448        C  0.13333213  0.25770253  0.62457467    -0.14100
C449        C  0.15147388  0.27746374  0.61773480     0.24700
C450        C  0.15025139  0.28286807  0.60200620    -0.19500
C451        C  0.16742825  0.30270557  0.59548490    -0.08000
C452        C  0.18592208  0.31740323  0.60467643    -0.04100
C453        C  0.18706929  0.31164116  0.62045295    -0.09400
C454        C  0.16997890  0.29181639  0.62691359    -0.17000
H455        H  0.07331418  0.20177007  0.67130037     0.11100
H456        H  0.10840399  0.23220362  0.66035174     0.10400
H457        H  0.08228706  0.21034396  0.61491856     0.10300
H458        H  0.04732125  0.17998731  0.62562585     0.10900
H459        H  0.13590779  0.27188807  0.59481165     0.10900
H460        H  0.16606173  0.30671465  0.58332448     0.10900
H461        H  0.20115201  0.32251050  0.62785033     0.11000
H462        H  0.17107280  0.28782203  0.63909331     0.09900
C463        C  0.31027369  0.31397767  0.60483573    -0.04000
C464        C  0.30258785  0.29845182  0.61772308    -0.09700
C465        C  0.32012872  0.27833376  0.62359186    -0.17400
C466        C  0.34548530  0.27344125  0.61664205     0.24800
C467        C  0.35303015  0.28836376  0.60362507    -0.19000
C468        C  0.33555579  0.30848335  0.59774367    -0.08000
C469        C  0.36418804  0.25381458  0.62314638    -0.14400
C470        C  0.38042115  0.23805966  0.62871049    -0.14100
C471        C  0.40031462  0.21982093  0.63536824     0.24700
C472        C  0.41491454  0.22783005  0.64839195    -0.19500
C473        C  0.43473933  0.21043289  0.65466138    -0.08000
C474        C  0.44023487  0.18477413  0.64795498    -0.04100
C475        C  0.42521729  0.17677584  0.63496219    -0.09400
C476        C  0.40542386  0.19422255  0.62870962    -0.17000
H477        H  0.28323843  0.30214099  0.62341468     0.11100
H478        H  0.31408628  0.26687772  0.63367270     0.10400
H479        H  0.37259837  0.28472447  0.59814728     0.10300
H480        H  0.34202987  0.31999187  0.58777244     0.10900
H481        H  0.41112820  0.24761756  0.65363191     0.10900
H482        H  0.44593814  0.21719068  0.66465899     0.10900
H483        H  0.42897901  0.15717905  0.62951229     0.11000
H484        H  0.39426149  0.18783382  0.61861594     0.09900
C485        C  0.44258866  0.06026271  0.64913426    -0.04000
C486        C  0.42960274  0.04015466  0.65811484    -0.09700
C487        C  0.41015808  0.02262241  0.65157621    -0.17400
C488        C  0.40341559  0.02517361  0.63606476     0.24800
C489        C  0.41587839  0.04545007  0.62715176    -0.19000
C490        C  0.43534077  0.06286113  0.63361995    -0.08000
C491        C  0.38417895  0.00667480  0.62913802    -0.14400
C492        C  0.36847024  0.49089821  0.62320425    -0.14100
C493        C  0.34991659  0.47132414  0.61662094     0.24700
C494        C  0.34683880  0.46942060  0.60072781    -0.19500
C495        C  0.32921001  0.44976982  0.59444835    -0.08000
C496        C  0.31450852  0.43186486  0.60404254    -0.04100
C497        C  0.31758329  0.43421347  0.61999730    -0.09400
C498        C  0.33519286  0.45376181  0.62621658    -0.17000
H499        H  0.43481207  0.03767901  0.67007493     0.11100
H500        H  0.40059755  0.50693289  0.65856338     0.10400
H501        H  0.41075524  0.04762973  0.61515373     0.10300
H502        H  0.44482741  0.07828833  0.62642968     0.10900
H503        H  0.35817490  0.48297848  0.59320676     0.10900
H504        H  0.32718038  0.44850802  0.58213651     0.10900
H505        H  0.30655429  0.42076896  0.62771403     0.11000
H506        H  0.33745140  0.45506029  0.63852426     0.09900
C507        C  0.19053216  0.43553456  0.60520803    -0.04000
C508        C  0.19727599  0.44889951  0.61895756    -0.09700
C509        C  0.18006510  0.46913920  0.62495106    -0.17400
C510        C  0.15601343  0.47636951  0.61725044     0.24800
C511        C  0.14938020  0.46354685  0.60342777    -0.19000
C512        C  0.16650439  0.44323788  0.59743547    -0.08000
C513        C  0.13764439  0.49623108  0.62377845    -0.14400
C514        C  0.12151500  0.51207435  0.62932331    -0.14100
C515        C  0.10139205  0.03011495  0.63587856     0.24700
C516        C  0.09524628  0.05511757  0.62877807    -0.19500
C517        C  0.07492610  0.07215149  0.63482386    -0.08000
C518        C  0.06042235  0.06430966  0.64803931    -0.04100
C519        C  0.06697920  0.03927671  0.65519670    -0.09400
C520        C  0.08734650  0.02230660  0.64914194    -0.17000
H521        H  0.21559424  0.44338811  0.62522389     0.11100
H522        H  0.18534172  0.47889590  0.63568238     0.10400
H523        H  0.13079131  0.46899236  0.59738318     0.10300
H524        H  0.16080038  0.43340012  0.58680246     0.10900
H525        H  0.10595929  0.06131650  0.61848367     0.10900
H526        H  0.07033866  0.09127536  0.62903615     0.10900
H527        H  0.05622428  0.03268851  0.66539447     0.11000
H528        H  0.09193799  0.00296498  0.65471296     0.09900
C529        C  0.05765107  0.12213218  0.71060806    -0.04000
C530        C  0.07452790  0.09906716  0.71291449    -0.09700
C531        C  0.09350100  0.09860814  0.72490927    -0.17400
C532        C  0.09582187  0.12113338  0.73476298     0.24800
C533        C  0.07916993  0.14416836  0.73252902    -0.19000
C534        C  0.06025203  0.14470818  0.72053587    -0.08000
C535        C  0.11538446  0.12078442  0.74709965    -0.14400
C536        C  0.13188422  0.12102650  0.75737129    -0.14100
C537        C  0.15185023  0.12169990  0.76950019     0.24700
C538        C  0.16685585  0.14567498  0.77227179    -0.19500
C539        C  0.18657724  0.14624626  0.78386920    -0.08000
C540        C  0.19156726  0.12278779  0.79286591    -0.04100
C541        C  0.17623385  0.09884364  0.79005882    -0.09400
C542        C  0.15652768  0.09832909  0.77845501    -0.17000
H543        H  0.07300016  0.08134394  0.70549557     0.11100
H544        H  0.10630929  0.08067292  0.72651443     0.10400
H545        H  0.08077389  0.16171908  0.74007951     0.10300
H546        H  0.04748452  0.16271393  0.71913362     0.10900
H547        H  0.16342042  0.16389228  0.76541088     0.10900
H548        H  0.19804258  0.16498462  0.78571110     0.10900
H549        H  0.17959213  0.08042846  0.79675367     0.11000
H550        H  0.14504920  0.07965252  0.77641537     0.09900
C551        C  0.30844864  0.12651651  0.79278349    -0.04000
C552        C  0.31344328  0.10276621  0.78406286    -0.09700
C553        C  0.33303392  0.10297997  0.77240220    -0.17400
C554        C  0.34792355  0.12688394  0.76928182     0.24800
C555        C  0.34329361  0.15056192  0.77797222    -0.19000
C556        C  0.32369427  0.15040472  0.78965496    -0.08000
C557        C  0.36770481  0.12710843  0.75705510    -0.14400
C558        C  0.38405071  0.12691605  0.74670541    -0.14100
C559        C  0.40352667  0.12641191  0.73432992     0.24700
C560        C  0.40779122  0.14989106  0.72539477    -0.19500
C561        C  0.42695057  0.14951383  0.71350017    -0.08000
C562        C  0.44212972  0.12559803  0.71038714    -0.04100
C563        C  0.43752776  0.10202565  0.71935816    -0.09400
C564        C  0.41835234  0.10245759  0.73124058    -0.17000
H565        H  0.30206677  0.08405117  0.78616381     0.11100
H566        H  0.33644785  0.08453146  0.76575537     0.10400
H567        H  0.35470729  0.16918710  0.77565949     0.10300
H568        H  0.32032969  0.16902907  0.79614319     0.10900
H569        H  0.39641552  0.16854237  0.72767395     0.10900
H570        H  0.43004374  0.16801594  0.70683809     0.10900
H571        H  0.44889703  0.08330614  0.71728362     0.11000
H572        H  0.41520180  0.08415038  0.73807166     0.09900
C573        C  0.50258898  0.43388208  0.95957179    -0.04000
C574        C  0.47834757  0.44060274  0.96743764    -0.09700
C575        C  0.47858105  0.46019955  0.97911611    -0.17400
C576        C  0.50300687  0.47336636  0.98313545     0.24800
C577        C  0.02714083  0.46722758  0.97518117    -0.19000
C578        C  0.02695023  0.44765761  0.96345689    -0.08000
C579        C  0.50332715  0.49265792  0.99564613    -0.14400
C580        C  0.50316369  0.00848434  0.00627200    -0.14100
C581        C  0.50258688  0.02753742  0.01889294     0.24700
C582        C  0.02666387  0.03381398  0.02684616    -0.19500
C583        C  0.02623760  0.05299837  0.03875583    -0.08000
C584        C  0.50168765  0.06625306  0.04284349    -0.04100
C585        C  0.47751211  0.05944911  0.03495404    -0.09400
C586        C  0.47797980  0.04021354  0.02308437    -0.17000
H587        H  0.45922463  0.43049631  0.96468793     0.11100
H588        H  0.45975279  0.46482893  0.98514389     0.10400
H589        H  0.04617159  0.47731681  0.97816324     0.10300
H590        H  0.04594676  0.44298667  0.95762034     0.10900
H591        H  0.04582707  0.02409700  0.02373815     0.10900
H592        H  0.04519943  0.05775859  0.04459637     0.10900
H593        H  0.45825994  0.06916891  0.03785846     0.11000
H594        H  0.45918689  0.03545268  0.01706388     0.09900
C595        C  0.99883166  0.31645422  0.96032056    -0.04000
C596        C  0.47585925  0.29951199  0.96264824    -0.09700
C597        C  0.47558784  0.28023749  0.97454098    -0.17400
C598        C  0.99820838  0.27766583  0.98427606     0.24800
C599        C  0.02129129  0.29416430  0.98191228    -0.19000
C600        C  0.02164462  0.31338333  0.97001592    -0.08000
C601        C  0.99763524  0.25839251  0.99680698    -0.14400
C602        C  0.99736429  0.24237125  0.00735564    -0.14100
C603        C  0.99748020  0.22297194  0.01983056     0.24700
C604        C  0.02180323  0.20965847  0.02389398    -0.19500
C605        C  0.02188470  0.19016368  0.03564653    -0.08000
C606        C  0.99758595  0.18367128  0.04353337    -0.04100
C607        C  0.47331285  0.19753353  0.03956815    -0.09400
C608        C  0.47327762  0.21701489  0.02777138    -0.17000
H609        H  0.45801911  0.30129929  0.95536353     0.11100
H610        H  0.45763580  0.26751819  0.97622743     0.10400
H611        H  0.03894079  0.29234467  0.98934944     0.10300
H612        H  0.03964901  0.32609985  0.96855166     0.10900
H613        H  0.04067659  0.21413628  0.01786734     0.10900
H614        H  0.04094193  0.17996115  0.03844048     0.10900
H615        H  0.45427592  0.19301341  0.04540636     0.11000
H616        H  0.45432418  0.22721712  0.02474300     0.09900
C617        C  0.06303358  0.31547073  0.89904857    -0.04000
C618        C  0.08381205  0.30311924  0.90778323    -0.09700
C619        C  0.10102273  0.28342132  0.90119247    -0.17400
C620        C  0.09747139  0.27574265  0.88588144     0.24800
C621        C  0.07647966  0.28752473  0.87723109    -0.19000
C622        C  0.05939454  0.30726623  0.88374847    -0.08000
C623        C  0.11581566  0.25639778  0.87887691    -0.14400
C624        C  0.13173648  0.24078385  0.87296012    -0.14100
C625        C  0.15169738  0.22262014  0.86636580     0.24700
C626        C  0.15564163  0.22179256  0.85050407    -0.19500
C627        C  0.17579059  0.20473573  0.84423615    -0.08000
C628        C  0.19222601  0.18838044  0.85380300    -0.04100
C629        C  0.18788536  0.18922520  0.86971590    -0.09400
C630        C  0.16777448  0.20622746  0.87593027    -0.17000
H631        H  0.08711564  0.30909823  0.91956396     0.11100
H632        H  0.11728420  0.27442947  0.90797122     0.10400
H633        H  0.07352631  0.28170616  0.86538761     0.10300
H634        H  0.04342681  0.31625635  0.87675904     0.10900
H635        H  0.14330538  0.23446943  0.84300441     0.10900
H636        H  0.17863088  0.20449750  0.83195336     0.10900
H637        H  0.20012726  0.17683946  0.87740501     0.11000
H638        H  0.16491347  0.20674684  0.88821792     0.09900
C639        C  0.31002536  0.18548408  0.85477452    -0.04000
C640        C  0.32541683  0.17724144  0.86759342    -0.09700
C641        C  0.34534660  0.19459078  0.87376711    -0.17400
C642        C  0.35021205  0.22034556  0.86720482     0.24800
C643        C  0.33527047  0.22858015  0.85433453    -0.19000
C644        C  0.31530816  0.21127632  0.84814225    -0.08000
C645        C  0.37005194  0.23860737  0.87387193    -0.14400
C646        C  0.38608750  0.25450522  0.87947162    -0.14100
C647        C  0.40455033  0.27430146  0.88601507     0.24700
C648        C  0.39768543  0.28766266  0.89965318    -0.19500
C649        C  0.41501219  0.30779521  0.90567433    -0.08000
C650        C  0.43947964  0.31478921  0.89811815    -0.04100
C651        C  0.44641180  0.30091429  0.88454144    -0.09400
C652        C  0.42901774  0.28085352  0.87852594    -0.17000
H653        H  0.32184048  0.15752542  0.87297571     0.11100
H654        H  0.35676816  0.18802454  0.88374287     0.10400
H655        H  0.33886272  0.24849396  0.84917408     0.10300
H656        H  0.30382480  0.21821623  0.83827582     0.10900
H657        H  0.37878293  0.28274508  0.90554146     0.10900
H658        H  0.40914297  0.31803280  0.91616294     0.10900
H659        H  0.46508094  0.30583537  0.87843703     0.11000
H660        H  0.43450804  0.27067785  0.86794719     0.09900
C661        C  0.43710087  0.43307201  0.89898577    -0.04000
C662        C  0.42199781  0.45067247  0.90854453    -0.09700
C663        C  0.40461162  0.47054713  0.90221886    -0.17400
C664        C  0.40216914  0.47301307  0.88630665     0.24800
C665        C  0.41744129  0.45588324  0.87675318    -0.19000
C666        C  0.43480254  0.43610728  0.88301990    -0.08000
C667        C  0.38347725  0.49248237  0.87965846    -0.14400
C668        C  0.36748919  0.00801087  0.87369721    -0.14100
C669        C  0.34784287  0.02620718  0.86679667     0.24700
C670        C  0.34099662  0.02362836  0.85129729    -0.19500
C671        C  0.32128936  0.04096177  0.84478713    -0.08000
C672        C  0.30813341  0.06091451  0.85377797    -0.04100
C673        C  0.31540735  0.06346878  0.86928912    -0.09400
C674        C  0.33511989  0.04626153  0.87572720    -0.17000
H675        H  0.42344309  0.44892895  0.92086592     0.11100
H676        H  0.39288115  0.98376449  0.90971829     0.10400
H677        H  0.41571022  0.45760873  0.86443349     0.10300
H678        H  0.44618668  0.42296253  0.87532300     0.10900
H679        H  0.35072022  0.50810303  0.84429195     0.10900
H680        H  0.31606393  0.03849514  0.83283207     0.10900
H681        H  0.30578564  0.07874647  0.87650024     0.11000
H682        H  0.34027607  0.04846203  0.88771627     0.09900
C683        C  0.19035194  0.06442128  0.85512659    -0.04000
C684        C  0.18430756  0.03906489  0.84822152    -0.09700
C685        C  0.16428343  0.02184667  0.85444151    -0.17400
C686        C  0.15004211  0.02972206  0.86761639     0.24800
C687        C  0.15562428  0.05507051  0.87444946    -0.19000
C688        C  0.17562072  0.07234893  0.86824205    -0.08000
C689        C  0.13026611  0.01141260  0.87431577    -0.14400
C690        C  0.11437567  0.49525647  0.87982958    -0.14100
C691        C  0.09612242  0.47503489  0.88615816     0.24700
C692        C  0.07219240  0.46787074  0.87833096    -0.19500
C693        C  0.05494464  0.44750132  0.88417413    -0.08000
C694        C  0.06150501  0.43394252  0.89790912    -0.04100
C695        C  0.08551364  0.44141934  0.90575752    -0.09400
C696        C  0.10268151  0.46187228  0.89991448    -0.17000
H697        H  0.19524541  0.03238802  0.83811226     0.11100
H698        H  0.16011618  0.50225461  0.84907035     0.10400
H699        H  0.14473773  0.06135040  0.88466269     0.10300
H700        H  0.17978964  0.09173287  0.87383181     0.10900
H701        H  0.06698692  0.47785666  0.86764078     0.10900
H702        H  0.03666073  0.44214414  0.87784171     0.10900
H703        H  0.09108257  0.43140733  0.91637609     0.11000
H704        H  0.12119136  0.46723682  0.90604880     0.09900
O705        O  0.45613527  0.90722017  0.91960894    -0.82400
C706        C  0.04566949  0.83746147  0.90546949     0.97000
O707        O  0.03202309  0.85220226  0.89640522    -0.71500
O708        O  0.47991382  0.84167248  0.89766878    -0.75100
Al709      Al  0.00039777  0.87445651  0.89879653     1.49000
C710        C  0.45732361  0.83688675  0.90409234     0.92200
O711        O  0.47741524  0.84228694  0.94053270    -0.81300
O712        O  0.02392447  0.90709607  0.94018849    -0.74900
Al713      Al  0.46879659  0.87466453  0.92941073     1.90100
O714        O  0.02019945  0.85171283  0.94584048    -0.74000
O715        O  0.05150114  0.89743491  0.91505612    -0.73800
O716        O  0.04472803  0.84170921  0.91968541    -0.79500
O717        O  0.02092264  0.90724182  0.89755063    -0.77700
O718        O  0.00049349  0.87452073  0.91921081    -1.13800
O719        O  0.46865958  0.89664162  0.89635142    -0.73000
C720        C  0.45492481  0.91132669  0.90538934     0.97700
C721        C  0.99881362  0.83776354  0.94819363     0.94100
Al722      Al  0.03232053  0.87447345  0.92931953     1.55600
O723        O  0.44959227  0.85118868  0.91536267    -0.77600
C724        C  0.04365394  0.91184438  0.90385415     0.98300
C725        C  0.50252404  0.91201387  0.94777754     0.93200
O726        O  0.48107651  0.89802102  0.94563698    -0.82900
O727        O  0.21771422  0.66912564  0.83318464    -0.82400
C728        C  0.28649979  0.57875121  0.84735382     0.97000
O729        O  0.27198592  0.59264476  0.85639723    -0.71500
O730        O  0.28349530  0.64475244  0.85492701    -0.75100
Al731      Al  0.25041365  0.62481873  0.85396894     1.49000
C732        C  0.28803851  0.66764769  0.84870544     0.92200
O733        O  0.28241361  0.64796330  0.81238767    -0.81300
O734        O  0.21767453  0.60168081  0.81253969    -0.74900
Al735      Al  0.25016671  0.65659855  0.82341489     1.90100
O736        O  0.27303893  0.60501244  0.80707269    -0.74000
O737        O  0.22659946  0.57402742  0.83774023    -0.73800
O738        O  0.28238710  0.57993899  0.83313960    -0.79500
O739        O  0.21737104  0.60484817  0.85526097    -0.77700
O740        O  0.25019401  0.62475461  0.83357128    -1.13800
O741        O  0.22886657  0.65708479  0.85645902    -0.73000
C742        C  0.21394406  0.67060176  0.84742147     0.97700
C743        C  0.28698834  0.62648627  0.80477015     0.94100
Al744      Al  0.24995088  0.59290726  0.82347654     1.55600
O745        O  0.27349182  0.67572195  0.83760069    -0.77600
C746        C  0.21242632  0.58210281  0.84898878     0.98300
C747        C  0.21308173  0.62305015  0.80482247     0.93200
O748        O  0.22705729  0.64451757  0.80701292    -0.82900
O749        O  0.29451929  0.90683935  0.58344686    -0.82400
C750        C  0.20385470  0.83887110  0.59811414     0.97000
O751        O  0.21794036  0.85337145  0.60705286    -0.71500
O752        O  0.26987880  0.84113425  0.60546639    -0.75100
Al753      Al  0.25021597  0.87457756  0.60443517     1.49000
C754        C  0.29252990  0.83633798  0.59908081     0.92200
O755        O  0.27269642  0.84188573  0.56287730    -0.81300
O756        O  0.22718931  0.90718194  0.56276519    -0.74900
Al757      Al  0.28166695  0.87427910  0.57380688     1.90100
O758        O  0.22983366  0.85150542  0.55774359    -0.74000
O759        O  0.19977980  0.89889034  0.58808241    -0.73800
O760        O  0.20498030  0.84281842  0.58387764    -0.79500
O761        O  0.23055611  0.90794282  0.60563394    -0.77700
O762        O  0.24998976  0.87462691  0.58402221    -1.13800
O763        O  0.28260494  0.89581789  0.60676287    -0.73000
C764        C  0.29622564  0.91056194  0.59767897     0.97700
C765        C  0.25108660  0.83733016  0.55540797     0.94100
Al766      Al  0.21818003  0.87505654  0.57397460     1.55600
O767        O  0.30055051  0.85093510  0.58798148    -0.77600
C768        C  0.20796725  0.91311742  0.59927429     0.98300
C769        C  0.24860204  0.91143965  0.55506986     0.93200
O770        O  0.26983085  0.89727900  0.55739374    -0.82900
O771        O  0.03227363  0.66864170  0.66990331    -0.82400
C772        C  0.46410352  0.57813451  0.65557625     0.97000
O773        O  0.47873382  0.59196922  0.64653954    -0.71500
O774        O  0.46677465  0.64401264  0.64793105    -0.75100
Al775      Al  0.00001697  0.62431219  0.64900178     1.49000
C776        C  0.46211692  0.66688550  0.65412730     0.92200
O777        O  0.46746303  0.64690829  0.69044482    -0.81300
O778        O  0.03274205  0.60108486  0.69042926    -0.74900
Al779      Al  0.49976746  0.65584988  0.67955367     1.90100
O780        O  0.47738525  0.60414368  0.69595896    -0.74000
O781        O  0.02379311  0.57349970  0.66520363    -0.73800
O782        O  0.46804408  0.57935600  0.66980510    -0.79500
O783        O  0.03323717  0.60461804  0.64783752    -0.77700
O784        O  0.50006018  0.62412310  0.66939336    -1.13800
O785        O  0.02128701  0.65679913  0.64658518    -0.73000
C786        C  0.03603586  0.67037346  0.65566875     0.97700
C787        C  0.46325441  0.62550263  0.69822034     0.94100
Al788      Al  0.00044336  0.59223951  0.67948587     1.55600
O789        O  0.47650827  0.67493527  0.66529154    -0.77600
C790        C  0.03814461  0.58179652  0.65406764     0.98300
C791        C  0.03679561  0.62236011  0.69830053     0.93200
O792        O  0.02266808  0.64371838  0.69603867    -0.82900
O793        O  0.29883586  0.60088504  0.41528850    -0.82400
C794        C  0.20573947  0.66320303  0.40454988     0.97000
O795        O  0.22830178  0.65802620  0.39819639    -0.71500
O796        O  0.28036386  0.64649784  0.39694245    -0.75100
Al797      Al  0.24801948  0.62477812  0.39933208     1.49000
C798        C  0.29405572  0.66101845  0.40612956     0.92200
O799        O  0.26838190  0.64656904  0.44644623    -0.81300
O800        O  0.22836518  0.60194883  0.44624357    -0.74900
Al801      Al  0.27993658  0.62387114  0.42975712     1.90100
O802        O  0.22606944  0.65763960  0.44094083    -0.74000
O803        O  0.20298599  0.59338195  0.42039990    -0.73800
O804        O  0.19778603  0.64924109  0.41591376    -0.79500
O805        O  0.21563668  0.60325625  0.39703176    -0.77700
O806        O  0.24813328  0.62472293  0.41971535    -1.13800
O807        O  0.26774093  0.59139012  0.39806632    -0.73000
C808        C  0.29066309  0.58661358  0.40411161     0.97700
C809        C  0.24749356  0.66131926  0.44869290     0.94100
Al810      Al  0.21653101  0.62550649  0.42999913     1.55600
O811        O  0.29276759  0.65659531  0.42032403    -0.77600
C812        C  0.20148552  0.58917107  0.40621648     0.98300
C813        C  0.24924080  0.58696963  0.44807383     0.93200
O814        O  0.27067475  0.59118764  0.44036237    -0.82900
O815        O  0.46660925  0.91933297  0.33310325    -0.82400
C816        C  0.03495254  0.82887427  0.34735643     0.97000
O817        O  0.02036741  0.84248381  0.35655043    -0.71500
O818        O  0.03148661  0.89474589  0.35543164    -0.75100
Al819      Al  0.49845835  0.87470154  0.35420549     1.49000
C820        C  0.03629732  0.91754011  0.34917612     0.92200
O821        O  0.03157422  0.89706210  0.31281573    -0.81300
O822        O  0.46533256  0.85189630  0.31294073    -0.74900
Al823      Al  0.99912855  0.90634289  0.32361088     1.90100
O824        O  0.02043706  0.85474058  0.30708175    -0.74000
O825        O  0.47511664  0.82367552  0.33810023    -0.73800
O826        O  0.03055121  0.83011132  0.33316191    -0.79500
O827        O  0.46541756  0.85464973  0.35540325    -0.77700
O828        O  0.49849450  0.87463251  0.33381849    -1.13800
O829        O  0.47657157  0.90698783  0.35651780    -0.73000
C830        C  0.46213907  0.92069181  0.34728296     0.97700
C831        C  0.03512836  0.87571943  0.30489988     0.94100
Al832      Al  0.49790401  0.84281653  0.32369571     1.55600
O833        O  0.02224643  0.92541793  0.33785061    -0.77600
C834        C  0.46089046  0.83166853  0.34932428     0.98300
C835        C  0.46153141  0.87332852  0.30509099     0.93200
O836        O  0.47623141  0.89434144  0.30717862    -0.82900
O837        O  0.04355480  0.65675310  0.08364088    -0.82400
C838        C  0.45392931  0.58700646  0.09753655     0.97000
O839        O  0.46737480  0.60180691  0.10666170    -0.71500
O840        O  0.01953354  0.59087291  0.10529993    -0.75100
Al841      Al  0.49935233  0.62384358  0.10432653     1.49000
C842        C  0.04223335  0.58622558  0.09896632     0.92200
O843        O  0.02274753  0.59226104  0.06258618    -0.81300
O844        O  0.47606200  0.65692957  0.06294558    -0.74900
Al845      Al  0.03113551  0.62442234  0.07378919     1.90100
O846        O  0.47991004  0.60143768  0.05724053    -0.74000
O847        O  0.44835436  0.64707329  0.08818888    -0.73800
O848        O  0.45532631  0.59121665  0.08332639    -0.79500
O849        O  0.47911126  0.65676767  0.10561376    -0.77700
O850        O  0.49938177  0.62415692  0.08391964    -1.13800
O851        O  0.03133831  0.64583236  0.10691710    -0.73000
C852        C  0.04489481  0.66069388  0.09785115     0.97700
C853        C  0.50141155  0.58761623  0.05491724     0.94100
Al854      Al  0.46764024  0.62417069  0.07378701     1.55600
O855        O  0.05021885  0.60083454  0.08785203    -0.77600
C856        C  0.45620547  0.66128386  0.09948290     0.98300
C857        C  0.99752118  0.66186371  0.05539098     0.93200
O858        O  0.01895938  0.64789256  0.05759410    -0.82900
O859        O  0.22520562  0.82319896  0.16575050    -0.82400
C860        C  0.28668050  0.91692669  0.15449886     0.97000
O861        O  0.28237442  0.89385809  0.14847544    -0.71500
O862        O  0.27132670  0.84159280  0.14737960    -0.75100
Al863      Al  0.24936565  0.87381103  0.14942493     1.49000
C864        C  0.28546525  0.82778185  0.15669825     0.92200
O865        O  0.27065553  0.85470549  0.19666488    -0.81300
O866        O  0.22588308  0.89412958  0.19628663    -0.74900
Al867      Al  0.24800438  0.84236753  0.18011030     1.90100
O868        O  0.28108976  0.89722208  0.19077488    -0.74000
O869        O  0.21637362  0.91834089  0.16999590    -0.73800
O870        O  0.27203143  0.92507345  0.16552595    -0.79500
O871        O  0.22756616  0.90602193  0.14675457    -0.77700
O872        O  0.24876269  0.87401256  0.16979957    -1.13800
O873        O  0.21640629  0.85375949  0.14801065    -0.73000
C874        C  0.21143109  0.83103803  0.15430597     0.97700
C875        C  0.28508923  0.87595166  0.19870702     0.94100
Al876      Al  0.24883578  0.90595436  0.17979243     1.55600
O877        O  0.28068467  0.82911180  0.17085121    -0.77600
C878        C  0.21260868  0.91964530  0.15574734     0.98300
C879        C  0.21125632  0.87308412  0.19840444     0.93200
O880        O  0.21529013  0.85164919  0.19065200    -0.82900
C881        C  0.18988284  0.81307398  0.14793677    -0.04000
C882        C  0.17230779  0.82269825  0.13635381    -0.09700
C883        C  0.15273847  0.80527340  0.12988781    -0.17400
C884        C  0.15057090  0.77805817  0.13488666     0.24800
C885        C  0.16780548  0.76838965  0.14647717    -0.19000
C886        C  0.18729591  0.78578405  0.15300008    -0.08000
C887        C  0.13100683  0.75981802  0.12801459    -0.14400
C888        C  0.11520851  0.74366278  0.12247278    -0.14100
C889        C  0.09699274  0.72345736  0.11617376     0.24700
C890        C  0.09748138  0.71771432  0.10049696    -0.19500
C891        C  0.08035710  0.69743599  0.09446075    -0.08000
C892        C  0.06263172  0.68258557  0.10407797    -0.04100
C893        C  0.06216787  0.68866350  0.11981120    -0.09400
C894        C  0.07924122  0.70897868  0.12580296    -0.17000
H895        H  0.17378809  0.84362417  0.13222936     0.11100
H896        H  0.13947413  0.81294941  0.12092017     0.10400
H897        H  0.16631722  0.74732677  0.15039568     0.10300
H898        H  0.20061612  0.77773721  0.16183143     0.10900
H899        H  0.11123365  0.72876664  0.09296122     0.10900
H900        H  0.08119027  0.69320244  0.08231383     0.10900
H901        H  0.04867207  0.67766940  0.12750873     0.11000
H902        H  0.07874383  0.71324638  0.13796014     0.09900
C903        C  0.43809383  0.68277358  0.10592960    -0.04000
C904        C  0.44637725  0.69801895  0.11879567    -0.09700
C905        C  0.42877581  0.71728785  0.12541577    -0.17400
C906        C  0.40267882  0.72164120  0.11928252     0.24800
C907        C  0.39440836  0.70690530  0.10633684    -0.19000
C908        C  0.41198093  0.68760178  0.09969079    -0.08000
C909        C  0.38419597  0.74080533  0.12643909    -0.14400
C910        C  0.36822370  0.75650241  0.13231243    -0.14100
C911        C  0.34829283  0.77502846  0.13874298     0.24700
C912        C  0.34110615  0.77337725  0.15423919    -0.19500
C913        C  0.32089054  0.79074536  0.16022723    -0.08000
C914        C  0.30753550  0.80986091  0.15073363    -0.04100
C915        C  0.31520326  0.81156097  0.13523907    -0.09400
C916        C  0.33542764  0.79430992  0.12931577    -0.17000
H917        H  0.46633683  0.69481289  0.12388432     0.11100
H918        H  0.43542129  0.72857758  0.13541787     0.10400
H919        H  0.37425878  0.71012148  0.10147582     0.10300
H920        H  0.40498588  0.67621968  0.08980421     0.10900
H921        H  0.35091830  0.75849861  0.16164778     0.10900
H922        H  0.31544873  0.78895254  0.17219465     0.10900
H923        H  0.30547944  0.82617717  0.12764102     0.11000
H924        H  0.34082314  0.79582170  0.11732198     0.09900
C925        C  0.30847414  0.93486099  0.14826691    -0.04000
C926        C  0.31409002  0.96050479  0.15495900    -0.09700
C927        C  0.33384802  0.97789552  0.14858571    -0.17400
C928        C  0.34820410  0.96990668  0.13545702     0.24800
C929        C  0.34300610  0.94429305  0.12884883    -0.19000
C930        C  0.32331296  0.92685934  0.13520746    -0.08000
C931        C  0.36773469  0.98826796  0.12853764    -0.14400
C932        C  0.38355992  0.50419884  0.12274127    -0.14100
C933        C  0.40192218  0.52419771  0.11624312     0.24700
C934        C  0.40413003  0.52724910  0.10035085    -0.19500
C935        C  0.42121345  0.54752879  0.09415265    -0.08000
C936        C  0.43626073  0.56498362  0.10381603    -0.04100
C937        C  0.43414001  0.56144188  0.11975986    -0.09400
C938        C  0.41708232  0.54124484  0.12590333    -0.17000
H939        H  0.30303446  0.96724993  0.16501454     0.11100
H940        H  0.33770942  0.99769134  0.15379640     0.10400
H941        H  0.35396599  0.93791193  0.11867983     0.10300
H942        H  0.31944860  0.90727980  0.12976273     0.10900
H943        H  0.39246290  0.51414365  0.09276376     0.10900
H944        H  0.42249240  0.54967041  0.08184433     0.10900
H945        H  0.44547982  0.57446520  0.12753574     0.11000
H946        H  0.41552496  0.53910323  0.13821048     0.09900
C947        C  0.05995795  0.56403049  0.10493313    -0.04000
C948        C  0.05206306  0.54898080  0.11796345    -0.09700
C949        C  0.06949541  0.52915923  0.12419219    -0.17400
C950        C  0.09497183  0.52404158  0.11746485     0.24800
C951        C  0.10273295  0.53841177  0.10428199    -0.19000
C952        C  0.08534569  0.55828689  0.09803696    -0.08000
C953        C  0.11356181  0.50478693  0.12438836    -0.14400
C954        C  0.12980673  0.48934680  0.13020131    -0.14100
C955        C  0.15008387  0.97143859  0.13675793     0.24700
C956        C  0.16697454  0.95595679  0.12716475    -0.19500
C957        C  0.18719034  0.93904234  0.13338353    -0.08000
C958        C  0.19085626  0.93739852  0.14932765    -0.04100
C959        C  0.17367830  0.95292283  0.15891383    -0.09400
C960        C  0.15341104  0.96986164  0.15264525    -0.17000
H961        H  0.03262816  0.55286148  0.12352290     0.11100
H962        H  0.06328160  0.51813738  0.13439072     0.10400
H963        H  0.12240853  0.53456455  0.09897182     0.10300
H964        H  0.09195931  0.56943227  0.08796718     0.10900
H965        H  0.16462192  0.95707158  0.11485673     0.10900
H966        H  0.20003824  0.92734986  0.12567736     0.10900
H967        H  0.17596987  0.95206679  0.17122331     0.11000
H968        H  0.14045714  0.98182537  0.16017306     0.09900
C969        C  0.05605795  0.87527079  0.29264847    -0.04000
C970        C  0.07288902  0.89820330  0.28992970    -0.09700
C971        C  0.09193633  0.89791888  0.27797062    -0.17400
C972        C  0.09437809  0.87476339  0.26859039     0.24800
C973        C  0.07784206  0.85181094  0.27126945    -0.19000
C974        C  0.05883375  0.85202432  0.28321468    -0.08000
C975        C  0.11380941  0.87451607  0.25620851    -0.14400
C976        C  0.13017530  0.87422362  0.24587983    -0.14100
C977        C  0.15006020  0.87408156  0.23372175     0.24700
C978        C  0.15219415  0.85142459  0.22395037    -0.19500
C979        C  0.17192517  0.85112668  0.21233786    -0.08000
C980        C  0.18973608  0.87355883  0.21034629    -0.04100
C981        C  0.18723500  0.89633054  0.22015184    -0.09400
C982        C  0.16756685  0.89654139  0.23176387    -0.17000
H983        H  0.07122507  0.91640412  0.29697131     0.11100
H984        H  0.10467215  0.91579270  0.27600117     0.10400
H985        H  0.07956348  0.83377736  0.26408689     0.10300
H986        H  0.04614810  0.83405509  0.28496878     0.10900
H987        H  0.13872675  0.83392585  0.22536517     0.10900
H988        H  0.17331661  0.83331573  0.20497623     0.10900
H989        H  0.20067424  0.91389171  0.21896420     0.11000
H990        H  0.16612224  0.91416744  0.23927187     0.09900
C991        C  0.44023722  0.87393064  0.29303815    -0.04000
C992        C  0.42721519  0.84966158  0.28824297    -0.09700
C993        C  0.40802835  0.85030778  0.27635300    -0.17400
C994        C  0.40152092  0.87519361  0.26917137     0.24800
C995        C  0.41414025  0.89946490  0.27399900    -0.19000
C996        C  0.43338674  0.89885732  0.28582138    -0.08000
C997        C  0.38203639  0.87584142  0.25680102    -0.14400
C998        C  0.36568353  0.87626910  0.24645887    -0.14100
C999        C  0.34587410  0.87620286  0.23424702     0.24700
C1000       C  0.34031610  0.90029253  0.22605688    -0.19500
C1001       C  0.32075132  0.90019626  0.21436284    -0.08000
C1002       C  0.30643238  0.87597714  0.21074262    -0.04100
C1003       C  0.31229460  0.85185203  0.21898721    -0.09400
C1004       C  0.33189084  0.85198946  0.23063662    -0.17000
H1005       H  0.43215153  0.83014875  0.29351519     0.11100
H1006       H  0.39839066  0.83138219  0.27270359     0.10400
H1007       H  0.40923189  0.91885153  0.26856050     0.10300
H1008       H  0.44298661  0.91791409  0.28927000     0.10900
H1009       H  0.35099522  0.91917155  0.22875799     0.10900
H1010       H  0.31665687  0.91912363  0.20826569     0.10900
H1011       H  0.30166681  0.83286897  0.21648106     0.11000
H1012       H  0.33603063  0.83322148  0.23688831     0.09900
C1013       C  0.18805827  0.68514595  0.39826829    -0.04000
C1014       C  0.19569345  0.69913148  0.38483107    -0.09700
C1015       C  0.17820729  0.71855022  0.37827124    -0.17400
C1016       C  0.15293588  0.72432915  0.38506708     0.24800
C1017       C  0.14540807  0.71099381  0.39862531    -0.19000
C1018       C  0.16284865  0.69151194  0.40520158    -0.08000
C1019       C  0.13441367  0.74337397  0.37791583    -0.14400
C1020       C  0.11829587  0.75886316  0.37203656    -0.14100
C1021       C  0.09812377  0.77703531  0.36561057     0.24700
C1022       C  0.08324080  0.79437780  0.37524841    -0.19500
C1023       C  0.06287250  0.81135499  0.36925105    -0.08000
C1024       C  0.05706236  0.81123435  0.35348474    -0.04100
C1025       C  0.07238751  0.79400755  0.34381930    -0.09400
C1026       C  0.09278029  0.77695853  0.34987183    -0.17000
H1027       H  0.21495650  0.69470548  0.37921268     0.11100
H1028       H  0.18423607  0.72877168  0.36778404     0.10400
H1029       H  0.12589230  0.71536691  0.40399256     0.10300
H1030       H  0.15641501  0.68115046  0.41556314     0.10900
H1031       H  0.08721027  0.79460191  0.38744028     0.10900
H1032       H  0.05156999  0.82447459  0.37699867     0.10900
H1033       H  0.06843438  0.79350059  0.33163727     0.11000
H1034       H  0.10419168  0.76356907  0.34231147     0.09900
C1035       C  0.43939419  0.81357316  0.35570915    -0.04000
C1036       C  0.42218039  0.82290192  0.36752443    -0.09700
C1037       C  0.40282778  0.80531934  0.37409799    -0.17400
C1038       C  0.40045626  0.77821795  0.36897425     0.24800
C1039       C  0.41723565  0.76886827  0.35708974    -0.19000
C1040       C  0.43654738  0.78642589  0.35046853    -0.08000
C1041       C  0.38111616  0.75984029  0.37602870    -0.14400
C1042       C  0.36528432  0.74382201  0.38173453    -0.14100
C1043       C  0.34674226  0.72378834  0.38801909     0.24700
C1044       C  0.33080747  0.70775425  0.37820022    -0.19500
C1045       C  0.31350181  0.68755139  0.38413422    -0.08000
C1046       C  0.31192256  0.68301988  0.40001448    -0.04100
C1047       C  0.32772623  0.69950324  0.40983674    -0.09400
C1048       C  0.34505622  0.71975505  0.40385493    -0.17000
H1049       H  0.42383526  0.84370243  0.37178956     0.11100
H1050       H  0.38990495  0.81278351  0.38326974     0.10400
H1051       H  0.41556554  0.74792293  0.35303432     0.10300
H1052       H  0.44953552  0.77860640  0.34142620     0.10900
H1053       H  0.33194257  0.71069513  0.36592977     0.10900
H1054       H  0.30153446  0.67531836  0.37625428     0.10900
H1055       H  0.32687389  0.69660143  0.42210882     0.11000
H1056       H  0.35730825  0.73207760  0.41156144     0.09900
C1057       C  0.30846770  0.56476587  0.39775178    -0.04000
C1058       C  0.29863979  0.54690057  0.38635665    -0.09700
C1059       C  0.31595203  0.52731168  0.37974583    -0.17400
C1060       C  0.34331267  0.52536193  0.38439051     0.24800
C1061       C  0.35310978  0.54268891  0.39592304    -0.19000
C1062       C  0.33582372  0.56220792  0.40258919    -0.08000
C1063       C  0.36160054  0.50612763  0.37712059    -0.14400
C1064       C  0.37788448  0.99065849  0.37131897    -0.14100
C1065       C  0.39851138  0.97264698  0.36511187     0.24700
C1066       C  0.41572009  0.95815833  0.37503172    -0.19500
C1067       C  0.43629745  0.94121727  0.36920094    -0.08000
C1068       C  0.44006878  0.93854775  0.35331159    -0.04100
C1069       C  0.42258073  0.95305668  0.34338765    -0.09400
C1070       C  0.40192538  0.97000541  0.34926747    -0.17000
H1071       H  0.27765455  0.54825642  0.38243114     0.06300
H1072       H  0.30809586  0.51395481  0.37087273     0.10400
H1073       H  0.37423573  0.54135859  0.39962881     0.10300
H1074       H  0.34403788  0.57565382  0.41131045     0.10900
H1075       H  0.41333719  0.96007798  0.38730569     0.10900
H1076       H  0.44936356  0.93033155  0.37716416     0.10900
H1077       H  0.42489178  0.95135757  0.33110657     0.11000
H1078       H  0.38874604  0.98115236  0.34146928     0.09900
C1079       C  0.05785272  0.93561171  0.35550905    -0.04000
C1080       C  0.07260131  0.92773740  0.36863228    -0.09700
C1081       C  0.09156292  0.94564454  0.37525370    -0.17400
C1082       C  0.09606949  0.97158359  0.36883957     0.24800
C1083       C  0.08201622  0.97932674  0.35557259    -0.19000
C1084       C  0.06303616  0.96147213  0.34893364    -0.08000
C1085       C  0.11454208  0.49057039  0.37606071    -0.14400
C1086       C  0.12962424  0.50712225  0.38188087    -0.14100
C1087       C  0.14764569  0.52756322  0.38816108     0.24700
C1088       C  0.16378226  0.54341822  0.37833268    -0.19500
C1089       C  0.18128681  0.56340148  0.38424713    -0.08000
C1090       C  0.18289824  0.56785287  0.40011907    -0.04100
C1091       C  0.16655913  0.55185586  0.40994843    -0.09400
C1092       C  0.14901578  0.53181780  0.40398239    -0.17000
H1093       H  0.06912409  0.90795385  0.37395651     0.11100
H1094       H  0.10239094  0.93942162  0.38550041     0.10400
H1095       H  0.08541994  0.99933923  0.35049039     0.10300
H1096       H  0.05208101  0.96811724  0.33882004     0.10900
H1097       H  0.16282768  0.54034245  0.36607232     0.10900
H1098       H  0.19355156  0.57537597  0.37636392     0.10900
H1099       H  0.16731875  0.55483018  0.42221321     0.11000
H1100       H  0.13653802  0.51967975  0.41168961     0.09900
C1101       C  0.24878042  0.93262177  0.54290235    -0.04000
C1102       C  0.27258191  0.93728935  0.53418454    -0.09700
C1103       C  0.27239036  0.95616886  0.52213086    -0.17400
C1104       C  0.24845960  0.97064963  0.51862352     0.24800
C1105       C  0.22482938  0.96654196  0.52740114    -0.19000
C1106       C  0.22496576  0.94766761  0.53947458    -0.08000
C1107       C  0.24807751  0.98943477  0.50589940    -0.14400
C1108       C  0.24788644  0.50519650  0.49525252    -0.14100
C1109       C  0.24788801  0.52457817  0.48280826     0.24700
C1110       C  0.22382591  0.53854247  0.47894159    -0.19500
C1111       C  0.22415266  0.55850449  0.46744006    -0.08000
C1112       C  0.24859886  0.56474741  0.45963674    -0.04100
C1113       C  0.27252420  0.55009444  0.46333288    -0.09400
C1114       C  0.27215620  0.53018385  0.47487252    -0.17000
H1115       H  0.29127243  0.92609688  0.53654202     0.11100
H1116       H  0.29082688  0.95925512  0.51544692     0.10400
H1117       H  0.20621293  0.47771323  0.52481172     0.10300
H1118       H  0.20633413  0.94457482  0.54597222     0.10900
H1119       H  0.20490439  0.53430548  0.48497540     0.10900
H1120       H  0.20534124  0.56927791  0.46479288     0.10900
H1121       H  0.29163954  0.55437727  0.45751875     0.11000
H1122       H  0.29089273  0.01945728  0.47775963     0.09900
C1123       C  0.25061342  0.81565837  0.54353165    -0.04000
C1124       C  0.22620573  0.80973066  0.53563735    -0.09700
C1125       C  0.22586991  0.79014561  0.52396791    -0.17400
C1126       C  0.24988379  0.77620854  0.51999918     0.24800
C1127       C  0.27420324  0.78167689  0.52791122    -0.19000
C1128       C  0.27458778  0.80125034  0.53962034    -0.08000
C1129       C  0.24960677  0.75668294  0.50763481    -0.14400
C1130       C  0.24923372  0.74058135  0.49716008    -0.14100
C1131       C  0.24886592  0.72128991  0.48468308     0.24700
C1132       C  0.27315154  0.70858838  0.47998724    -0.19500
C1133       C  0.27276618  0.68932914  0.46814189    -0.08000
C1134       C  0.24804814  0.68257709  0.46078446    -0.04100
C1135       C  0.22379195  0.69576190  0.46542135    -0.09400
C1136       C  0.22421381  0.71493920  0.47732238    -0.17000
H1137       H  0.20738306  0.82040004  0.53838068     0.11100
H1138       H  0.20692097  0.78606030  0.51794379     0.10400
H1139       H  0.29291945  0.77099722  0.52493767     0.10300
H1140       H  0.29370222  0.80535370  0.54546059     0.10900
H1141       H  0.29236335  0.71340335  0.48556722     0.10900
H1142       H  0.29179762  0.67962564  0.46479846     0.10900
H1143       H  0.20443033  0.69094967  0.46001825     0.11000
H1144       H  0.20528705  0.72465172  0.48085766     0.09900
C1145       C  0.05751563  0.68852762  0.64933593    -0.04000
C1146       C  0.07510100  0.70341254  0.65898744    -0.09700
C1147       C  0.09512910  0.72071211  0.65277581    -0.17400
C1148       C  0.09775378  0.72330443  0.63688446     0.24800
C1149       C  0.08046948  0.70843583  0.62722652    -0.19000
C1150       C  0.06051333  0.69115966  0.63338455    -0.08000
C1151       C  0.11757955  0.74176170  0.63038533    -0.14400
C1152       C  0.13333021  0.75770422  0.62457378    -0.14100
C1153       C  0.15147243  0.77746497  0.61773394     0.24700
C1154       C  0.15024630  0.78287342  0.60200587    -0.19500
C1155       C  0.16742409  0.80271016  0.59548464    -0.08000
C1156       C  0.18592236  0.81740306  0.60467576    -0.04100
C1157       C  0.18707325  0.81163684  0.62045171    -0.09400
C1158       C  0.16998199  0.79181273  0.62691227    -0.17000
H1159       H  0.07331936  0.70176521  0.67129988     0.11100
H1160       H  0.10840834  0.73219932  0.66035087     0.10400
H1161       H  0.08228034  0.71035072  0.61491801     0.10300
H1162       H  0.04731527  0.67999357  0.62562568     0.10900
H1163       H  0.13589918  0.77189721  0.59481168     0.10900
H1164       H  0.16605464  0.80672265  0.58332468     0.10900
H1165       H  0.20115955  0.82250241  0.62784869     0.11000
H1166       H  0.17107878  0.78781505  0.63909159     0.09900
C1167       C  0.31027470  0.81397784  0.60483582    -0.04000
C1168       C  0.30258862  0.79845251  0.61772332    -0.09700
C1169       C  0.32012938  0.77833475  0.62359250    -0.17400
C1170       C  0.34548613  0.77344196  0.61664294     0.24800
C1171       C  0.35303137  0.78836406  0.60362589    -0.19000
C1172       C  0.33555709  0.80848339  0.59774409    -0.08000
C1173       C  0.36418848  0.75381522  0.62314756    -0.14400
C1174       C  0.38042123  0.73806011  0.62871183    -0.14100
C1175       C  0.40031444  0.71982120  0.63536965     0.24700
C1176       C  0.41491649  0.72783149  0.64839240    -0.19500
C1177       C  0.43474131  0.71043430  0.65466176    -0.08000
C1178       C  0.44023475  0.68477435  0.64795625    -0.04100
C1179       C  0.42521495  0.67677484  0.63496450    -0.09400
C1180       C  0.40542148  0.69422158  0.62871199    -0.17000
H1181       H  0.28323903  0.80214181  0.62341473     0.11100
H1182       H  0.31408668  0.76687906  0.63367339     0.10400
H1183       H  0.37259980  0.78472459  0.59814830     0.10300
H1184       H  0.34203137  0.81999156  0.58777281     0.10900
H1185       H  0.41113186  0.74761997  0.65363160     0.10900
H1186       H  0.44594187  0.71719305  0.66465855     0.10900
H1187       H  0.42897496  0.65717709  0.62951534     0.11000
H1188       H  0.39425743  0.68783192  0.61861905     0.09900
C1189       C  0.44258947  0.56026250  0.64913495    -0.04000
C1190       C  0.42960512  0.54015313  0.65811532    -0.09700
C1191       C  0.41016082  0.52262044  0.65157670    -0.17400
C1192       C  0.40341712  0.52517248  0.63606545     0.24800
C1193       C  0.41587842  0.54545019  0.62715266    -0.19000
C1194       C  0.43534046  0.56286168  0.63362083    -0.08000
C1195       C  0.38418069  0.50667339  0.62913870    -0.14400
C1196       C  0.36846853  0.99089966  0.62320356    -0.14100
C1197       C  0.34991513  0.97132548  0.61662022     0.24700
C1198       C  0.34684081  0.96941890  0.60072700    -0.19500
C1199       C  0.32921254  0.94976769  0.59444754    -0.08000
C1200       C  0.31450819  0.93186527  0.60404183    -0.04100
C1201       C  0.31757940  0.93421703  0.61999666    -0.09400
C1202       C  0.33518841  0.95376586  0.62621595    -0.17000
H1203       H  0.43481545  0.53767680  0.67007524     0.11100
H1204       H  0.40059362  0.00693583  0.65856305     0.10400
H1205       H  0.41075433  0.54763052  0.61515478     0.10300
H1206       H  0.44482593  0.57828988  0.62643073     0.10900
H1207       H  0.35817930  0.98297467  0.59320590     0.10900
H1208       H  0.32718572  0.94850341  0.58213565     0.10900
H1209       H  0.30654803  0.92077465  0.62771348     0.11000
H1210       H  0.33744425  0.95506673  0.63852371     0.09900
C1211       C  0.19053321  0.93553509  0.60520748    -0.04000
C1212       C  0.19727703  0.94890029  0.61895694    -0.09700
C1213       C  0.18006619  0.96914019  0.62495029    -0.17400
C1214       C  0.15601458  0.97637048  0.61724960     0.24800
C1215       C  0.14938166  0.96354794  0.60342685    -0.19000
C1216       C  0.16650579  0.94323878  0.59743469    -0.08000
C1217       C  0.13764498  0.99623143  0.62377775    -0.14400
C1218       C  0.12151508  0.01207401  0.62932280    -0.14100
C1219       C  0.10139232  0.53011572  0.63587898     0.24700
C1220       C  0.09524748  0.55511877  0.62877871    -0.19500
C1221       C  0.07492731  0.57215287  0.63482438    -0.08000
C1222       C  0.06042270  0.56431074  0.64803948    -0.04100
C1223       C  0.06697873  0.53927742  0.65519667    -0.09400
C1224       C  0.08734598  0.52230716  0.64914205    -0.17000
H1225       H  0.21559512  0.94338877  0.62522338     0.11100
H1226       H  0.18534267  0.97889687  0.63568164     0.10400
H1227       H  0.13079293  0.96899351  0.59738215     0.10300
H1228       H  0.16080188  0.93340102  0.58680166     0.10900
H1229       H  0.10596115  0.56131786  0.61848455     0.10900
H1230       H  0.07034053  0.59127706  0.62903686     0.10900
H1231       H  0.05622316  0.53268897  0.66539419     0.11000
H1232       H  0.09193674  0.50296523  0.65471289     0.09900
C1233       C  0.05765349  0.62213171  0.71060769    -0.04000
C1234       C  0.07452907  0.59906578  0.71291426    -0.09700
C1235       C  0.09350232  0.59860600  0.72490896    -0.17400
C1236       C  0.09582456  0.62113143  0.73476245     0.24800
C1237       C  0.07917406  0.64416739  0.73252826    -0.19000
C1238       C  0.06025605  0.64470796  0.72053518    -0.08000
C1239       C  0.11538685  0.62078174  0.74709926    -0.14400
C1240       C  0.13188600  0.62102411  0.75737120    -0.14100
C1241       C  0.15185118  0.62169844  0.76950052     0.24700
C1242       C  0.16685639  0.64567384  0.77227198    -0.19500
C1243       C  0.18657735  0.64624589  0.78386961    -0.08000
C1244       C  0.19156730  0.62278787  0.79286670    -0.04100
C1245       C  0.17623399  0.59884354  0.79005988    -0.09400
C1246       C  0.15652831  0.59832820  0.77845584    -0.17000
H1247       H  0.07300009  0.58134235  0.70549557     0.11100
H1248       H  0.10630950  0.58067002  0.72651430     0.10400
H1249       H  0.08077914  0.66171827  0.74007856     0.10300
H1250       H  0.04748960  0.66271443  0.71913279     0.10900
H1251       H  0.16342109  0.66389075  0.76541072     0.10900
H1252       H  0.19804255  0.66498441  0.78571133     0.10900
H1253       H  0.17959212  0.58042874  0.79675506     0.11000
H1254       H  0.14505003  0.57965141  0.77641637     0.09900
C1255       C  0.30844893  0.62651756  0.79278435    -0.04000
C1256       C  0.31344458  0.60276697  0.78406414    -0.09700
C1257       C  0.33303532  0.60298081  0.77240351    -0.17400
C1258       C  0.34792410  0.62688519  0.76928272     0.24800
C1259       C  0.34329311  0.65056348  0.77797271    -0.19000
C1260       C  0.32369368  0.65040618  0.78965542    -0.08000
C1261       C  0.36770577  0.62710976  0.75705614    -0.14400
C1262       C  0.38405225  0.62691772  0.74670669    -0.14100
C1263       C  0.40352890  0.62641380  0.73433146     0.24700
C1264       C  0.40779402  0.64989309  0.72539648    -0.19500
C1265       C  0.42695341  0.64951575  0.71350186    -0.08000
C1266       C  0.44213204  0.62559969  0.71038859    -0.04100
C1267       C  0.43752987  0.60202736  0.71935962    -0.09400
C1268       C  0.41835445  0.60245941  0.73124207    -0.17000
H1269       H  0.30206880  0.58405160  0.78616541     0.11100
H1270       H  0.33645006  0.58453202  0.76575704     0.10400
H1271       H  0.35470610  0.66918896  0.77565969     0.10300
H1272       H  0.32032831  0.66903082  0.79614332     0.10900
H1273       H  0.39641855  0.66854450  0.72767571     0.10900
H1274       H  0.43004682  0.66801792  0.70683985     0.10900
H1275       H  0.44889881  0.58330770  0.71728497     0.11000
H1276       H  0.41520361  0.58415210  0.73807304     0.09900
C1277       C  0.50258752  0.93388001  0.95957289    -0.04000
C1278       C  0.47834737  0.94059473  0.96744153    -0.09700
C1279       C  0.47858063  0.96019042  0.97912055    -0.17400
C1280       C  0.50300495  0.97336218  0.98313762     0.24800
C1281       C  0.02713750  0.96722932  0.97518066    -0.19000
C1282       C  0.02694716  0.94766033  0.96345585    -0.08000
C1283       C  0.50332500  0.99265329  0.99564847    -0.14400
C1284       C  0.50316612  0.50848876  0.00626978    -0.14100
C1285       C  0.50258891  0.52754078  0.01889124     0.24700
C1286       C  0.02666571  0.53381726  0.02684471    -0.19500
C1287       C  0.02623866  0.55300005  0.03875521    -0.08000
C1288       C  0.50168815  0.56625319  0.04284348    -0.04100
C1289       C  0.47751291  0.55944929  0.03495375    -0.09400
C1290       C  0.47798137  0.54021538  0.02308324    -0.17000
H1291       H  0.45922565  0.93048439  0.96469365     0.11100
H1292       H  0.45975340  0.96481520  0.98515046     0.10400
H1293       H  0.04616708  0.97732253  0.97816097     0.10300
H1294       H  0.04594268  0.94299405  0.95761714     0.10900
H1295       H  0.04582928  0.52410145  0.02373631     0.10900
H1296       H  0.04520031  0.55776032  0.04459588     0.10900
H1297       H  0.45826037  0.56916799  0.03785855     0.11000
H1298       H  0.45918863  0.53545456  0.01706258     0.09900
C1299       C  0.99882923  0.81645203  0.96032000    -0.04000
C1300       C  0.47585680  0.79950943  0.96264677    -0.09700
C1301       C  0.47558474  0.78023382  0.97453898    -0.17400
C1302       C  0.99820474  0.77766147  0.98427447     0.24800
C1303       C  0.02128769  0.79416028  0.98191152    -0.19000
C1304       C  0.02164161  0.81338037  0.97001569    -0.08000
C1305       C  0.99763084  0.75838772  0.99680522    -0.14400
C1306       C  0.99735996  0.74236693  0.00735413    -0.14100
C1307       C  0.99747651  0.72296873  0.01982963     0.24700
C1308       C  0.02180068  0.70965888  0.02389463    -0.19500
C1309       C  0.02188287  0.69016491  0.03564761    -0.08000
C1310       C  0.99758369  0.68366977  0.04353335    -0.04100
C1311       C  0.47330944  0.69752867  0.03956670    -0.09400
C1312       C  0.47327347  0.71700914  0.02776946    -0.17000
H1313       H  0.45801711  0.80129728  0.95536177     0.11100
H1314       H  0.45763262  0.76751436  0.97622476     0.10400
H1315       H  0.03893674  0.79234019  0.98934899     0.10300
H1316       H  0.03964598  0.82609713  0.96855212     0.10900
H1317       H  0.04067442  0.71413880  0.01786884     0.10900
H1318       H  0.04094100  0.67996510  0.03844276     0.10900
H1319       H  0.45427219  0.69300641  0.04540406     0.11000
H1320       H  0.45431915  0.72720861  0.02473992     0.09900
C1321       C  0.06303295  0.81546863  0.89904994    -0.04000
C1322       C  0.08381131  0.80311710  0.90778465    -0.09700
C1323       C  0.10102148  0.78341855  0.90119402    -0.17400
C1324       C  0.09746962  0.77573930  0.88588312     0.24800
C1325       C  0.07647788  0.78752132  0.87723277    -0.19000
C1326       C  0.05939332  0.80726344  0.88375000    -0.08000
C1327       C  0.11581355  0.75639414  0.87887859    -0.14400
C1328       C  0.13173413  0.74078029  0.87296157    -0.14100
C1329       C  0.15169495  0.72261698  0.86636688     0.24700
C1330       C  0.15564467  0.72179616  0.85050546    -0.19500
C1331       C  0.17579410  0.70474010  0.84423736    -0.08000
C1332       C  0.19222467  0.68837909  0.85380376    -0.04100
C1333       C  0.18787837  0.68921693  0.86971630    -0.09400
C1334       C  0.16776688  0.70621824  0.87593083    -0.17000
H1335       H  0.08711528  0.80909659  0.91956528     0.11100
H1336       H  0.11728299  0.77442676  0.90797275     0.10400
H1337       H  0.07352415  0.78170230  0.86538938     0.10300
H1338       H  0.04342560  0.81625355  0.87676055     0.10900
H1339       H  0.14331248  0.73447783  0.84300622     0.10900
H1340       H  0.17863888  0.70450727  0.83195485     0.10900
H1341       H  0.20011624  0.67682641  0.87740501     0.11000
H1342       H  0.16490154  0.70673232  0.88821823     0.09900
C1343       C  0.31002604  0.68548413  0.85477489    -0.04000
C1344       C  0.32541989  0.67723972  0.86759255    -0.09700
C1345       C  0.34535052  0.69458835  0.87376596    -0.17400
C1346       C  0.35021435  0.72034422  0.86720465     0.24800
C1347       C  0.33527041  0.72858057  0.85433557    -0.19000
C1348       C  0.31530729  0.71127742  0.84814355    -0.08000
C1349       C  0.37005478  0.73860545  0.87387169    -0.14400
C1350       C  0.38609043  0.75450298  0.87947153    -0.14100
C1351       C  0.40455296  0.77429918  0.88601522     0.24700
C1352       C  0.39768682  0.78766135  0.89965283    -0.19500
C1353       C  0.41501298  0.80779438  0.90567398    -0.08000
C1354       C  0.43948100  0.81478792  0.89811827    -0.04100
C1355       C  0.44641457  0.80091179  0.88454216    -0.09400
C1356       C  0.42902111  0.78085052  0.87852667    -0.17000
H1357       H  0.32184484  0.65752277  0.87297407     0.11100
H1358       H  0.35677394  0.68802074  0.88374078     0.10400
H1359       H  0.33886140  0.74849522  0.84917591     0.10300
H1360       H  0.30382209  0.71821869  0.83827808     0.10900
H1361       H  0.37878376  0.78274427  0.90554066     0.10900
H1362       H  0.40914277  0.81803279  0.91616217     0.10900
H1363       H  0.46508431  0.80583239  0.87843818     0.11000
H1364       H  0.43451238  0.77067402  0.86794831     0.09900
C1365       C  0.43710126  0.93307097  0.89898502    -0.04000
C1366       C  0.42200084  0.95067421  0.90854349    -0.09700
C1367       C  0.40461456  0.97054850  0.90221752    -0.17400
C1368       C  0.40216915  0.97301115  0.88630528     0.24800
C1369       C  0.41743853  0.95587839  0.87675207    -0.19000
C1370       C  0.43479998  0.93610289  0.88301909    -0.08000
C1371       C  0.38347703  0.99248008  0.87965691    -0.14400
C1372       C  0.36748978  0.50801347  0.87369873    -0.14100
C1373       C  0.34784403  0.52620993  0.86679785     0.24700
C1374       C  0.34099505  0.52362792  0.85129901    -0.19500
C1375       C  0.32128790  0.54096112  0.84478859    -0.08000
C1376       C  0.30813468  0.56091670  0.85377870    -0.04100
C1377       C  0.31541164  0.56347445  0.86928922    -0.09400
C1378       C  0.33512417  0.54626748  0.87572753    -0.17000
H1379       H  0.42344840  0.94893330  0.92086491     0.11100
H1380       H  0.39287601  0.48376084  0.90971984     0.10400
H1381       H  0.41570515  0.95760127  0.86443236     0.10300
H1382       H  0.44618189  0.92295581  0.87532240     0.10900
H1383       H  0.35072415  0.00810592  0.84428957     0.10900
H1384       H  0.31606011  0.53849190  0.83283402     0.10900
H1385       H  0.30579220  0.57875459  0.87649967     0.11000
H1386       H  0.34028260  0.54847055  0.88771616     0.09900
C1387       C  0.19035208  0.56442249  0.85512786    -0.04000
C1388       C  0.18430616  0.53906658  0.84822268    -0.09700
C1389       C  0.16428141  0.52184923  0.85444283    -0.17400
C1390       C  0.15004108  0.52972498  0.86761798     0.24800
C1391       C  0.15562510  0.55507278  0.87445129    -0.19000
C1392       C  0.17562207  0.57235036  0.86824371    -0.08000
C1393       C  0.13026398  0.51141660  0.87431729    -0.14400
C1394       C  0.11437857  0.99525194  0.87982827    -0.14100
C1395       C  0.09612546  0.97503052  0.88615714     0.24700
C1396       C  0.07219585  0.96786554  0.87832981    -0.19500
C1397       C  0.05494762  0.94749704  0.88417350    -0.08000
C1398       C  0.06150705  0.93393994  0.89790914    -0.04100
C1399       C  0.08551546  0.94141732  0.90575758    -0.09400
C1400       C  0.10268382  0.96186943  0.89991403    -0.17000
H1401       H  0.19524310  0.53238955  0.83811316     0.11100
H1402       H  0.16011959  0.00225160  0.84906919     0.10400
H1403       H  0.14473942  0.56135292  0.88466475     0.10300
H1404       H  0.17979224  0.59173391  0.87383363     0.10900
H1405       H  0.06699091  0.97785028  0.86763921     0.10900
H1406       H  0.03666401  0.94213930  0.87784099     0.10900
H1407       H  0.09108371  0.93140653  0.91637661     0.11000
H1408       H  0.12119334  0.96723466  0.90604846     0.09900
O1409       O  0.95613485  0.40722020  0.91960923    -0.82400
C1410       C  0.54566952  0.33746282  0.90546840     0.97000
O1411       O  0.53202237  0.35220339  0.89640437    -0.71500
O1412       O  0.97991291  0.34167333  0.89766847    -0.75100
Al1413     Al  0.50039691  0.37445742  0.89879619     1.49000
C1414       C  0.95732302  0.33688740  0.90409237     0.92200
O1415       O  0.97741647  0.34228772  0.94053305    -0.81300
O1416       O  0.52392530  0.40709664  0.94018792    -0.74900
Al1417     Al  0.96879703  0.37466495  0.92941092     1.90100
O1418       O  0.52020110  0.35171366  0.94583985    -0.74000
O1419       O  0.55150070  0.39743596  0.91505524    -0.73800
O1420       O  0.54472840  0.34171026  0.91968437    -0.79500
O1421       O  0.52092144  0.40724302  0.89755022    -0.77700
O1422       O  0.50049349  0.37452136  0.91921051    -1.13800
O1423       O  0.96865859  0.39664231  0.89635155    -0.73000
C1424       C  0.95492415  0.41132718  0.90538969     0.97700
C1425       C  0.49881537  0.33776470  0.94819368     0.94100
Al1426     Al  0.53232104  0.37447426  0.92931877     1.55600
O1427       O  0.94959250  0.35118863  0.91536316    -0.77600
C1428       C  0.54365275  0.41184590  0.90385364     0.98300
C1429       C  0.00252505  0.41201502  0.94777699     0.93200
O1430       O  0.98107738  0.39802216  0.94563682    -0.82900
O1431       O  0.71771448  0.16912535  0.83318389    -0.82400
C1432       C  0.78649925  0.07874993  0.84735306     0.97000
O1433       O  0.77198567  0.09264388  0.85639646    -0.71500
O1434       O  0.78349515  0.14475188  0.85492641    -0.75100
Al1435     Al  0.75041344  0.12481802  0.85396818     1.49000
C1436       C  0.78803840  0.16764714  0.84870480     0.92200
O1437       O  0.78241362  0.14796238  0.81238685    -0.81300
O1438       O  0.71767445  0.10168023  0.81253880    -0.74900
Al1439     Al  0.75016684  0.15659787  0.82341411     1.90100
O1440       O  0.77303877  0.10501157  0.80707190    -0.74000
O1441       O  0.72659938  0.07402688  0.83773929    -0.73800
O1442       O  0.78238683  0.07993807  0.83313883    -0.79500
O1443       O  0.71737067  0.10484734  0.85526015    -0.77700
O1444       O  0.75019394  0.12475393  0.83357050    -1.13800
O1445       O  0.72886651  0.15708429  0.85645827    -0.73000
C1446       C  0.71394453  0.17060187  0.84742072     0.97700
C1447       C  0.78698820  0.12648534  0.80476933     0.94100
Al1448     Al  0.74995074  0.09290658  0.82347571     1.55600
O1449       O  0.77349211  0.17572111  0.83759984    -0.77600
C1450       C  0.71242610  0.08210203  0.84898781     0.98300
C1451       C  0.71308173  0.12304969  0.80482166     0.93200
O1452       O  0.72705731  0.14451704  0.80701221    -0.82900
O1453       O  0.79451859  0.40684003  0.58344747    -0.82400
C1454       C  0.70385407  0.33887146  0.59811462     0.97000
O1455       O  0.71793946  0.35337221  0.60705325    -0.71500
O1456       O  0.76987788  0.34113437  0.60546672    -0.75100
Al1457     Al  0.75021530  0.37457790  0.60443555     1.49000
C1458       C  0.79252900  0.33633819  0.59908113     0.92200
O1459       O  0.77269653  0.34188627  0.56287773    -0.81300
O1460       O  0.72718893  0.40718181  0.56276529    -0.74900
Al1461     Al  0.78166659  0.37427970  0.57380739     1.90100
O1462       O  0.72983358  0.35150515  0.55774405    -0.74000
O1463       O  0.69977933  0.39889050  0.58808259    -0.73800
O1464       O  0.70497993  0.34281838  0.58387807    -0.79500
O1465       O  0.73055557  0.40794319  0.60563419    -0.77700
O1466       O  0.74998928  0.37462724  0.58402258    -1.13800
O1467       O  0.78260455  0.39581794  0.60676342    -0.73000
C1468       C  0.79622529  0.41056213  0.59767960     0.97700
C1469       C  0.75108674  0.33733018  0.55540848     0.94100
Al1470     Al  0.71817967  0.37505653  0.57397488     1.55600
O1471       O  0.80054986  0.35093575  0.58798203    -0.77600
C1472       C  0.70796658  0.41311748  0.59927457     0.98300
C1473       C  0.74860189  0.41144003  0.55507023     0.93200
O1474       O  0.76983078  0.39727959  0.55739422    -0.82900
O1475       O  0.53227238  0.16864170  0.66990328    -0.82400
C1476       C  0.96410308  0.07813423  0.65557562     0.97000
O1477       O  0.97873343  0.09196901  0.64653897    -0.71500
O1478       O  0.96677507  0.14401255  0.64792994    -0.75100
Al1479     Al  0.50001703  0.12431155  0.64900130     1.49000
C1480       C  0.96211678  0.16688521  0.65412628     0.92200
O1481       O  0.96746116  0.14690713  0.69044378    -0.81300
O1482       O  0.53274100  0.10108465  0.69042925    -0.74900
Al1483     Al  0.99976598  0.15584933  0.67955319     1.90100
O1484       O  0.97738418  0.10414286  0.69595828    -0.74000
O1485       O  0.52379289  0.07349889  0.66520356    -0.73800
O1486       O  0.96804379  0.07935524  0.66980448    -0.79500
O1487       O  0.53323693  0.10461695  0.64783734    -0.77700
O1488       O  0.00005956  0.12412253  0.66939287    -1.13800
O1489       O  0.52128773  0.15679807  0.64658500    -0.73000
C1490       C  0.53603571  0.17037291  0.65566877     0.97700
C1491       C  0.96325265  0.12550144  0.69821929     0.94100
Al1492     Al  0.50044269  0.09223889  0.67948548     1.55600
O1493       O  0.97650730  0.17493471  0.66529088    -0.77600
C1494       C  0.53814434  0.08179550  0.65406752     0.98300
C1495       C  0.53679378  0.12236000  0.69830059     0.93200
O1496       O  0.52266601  0.14371803  0.69603849    -0.82900
O1497       O  0.79883667  0.10088536  0.41528846    -0.82400
C1498       C  0.70573996  0.16320327  0.40454988     0.97000
O1499       O  0.72830201  0.15802580  0.39819629    -0.71500
O1500       O  0.78036412  0.14649758  0.39694264    -0.75100
Al1501     Al  0.74801978  0.12477787  0.39933235     1.49000
C1502       C  0.79405624  0.16101819  0.40612963     0.92200
O1503       O  0.76838297  0.14656856  0.44644662    -0.81300
O1504       O  0.72836601  0.10194910  0.44624379    -0.74900
Al1505     Al  0.77993728  0.12387110  0.42975721     1.90100
O1506       O  0.72607089  0.15764021  0.44094111    -0.74000
O1507       O  0.70298550  0.09338290  0.42040039    -0.73800
O1508       O  0.69778678  0.14924221  0.41591417    -0.79500
O1509       O  0.71563714  0.10325600  0.39703226    -0.77700
O1510       O  0.74813375  0.12472311  0.41971557    -1.13800
O1511       O  0.76774108  0.09138993  0.39806680    -0.73000
C1512       C  0.79066353  0.08661368  0.40411176     0.97700
C1513       C  0.74749495  0.16131920  0.44869332     0.94100
Al1514     Al  0.71653164  0.12550722  0.42999949     1.55600
O1515       O  0.79276818  0.15659538  0.42032415    -0.77600
C1516       C  0.70148533  0.08917155  0.40621700     0.98300
C1517       C  0.74924143  0.08696937  0.44807368     0.93200
O1518       O  0.77067533  0.09118739  0.44036217    -0.82900
O1519       O  0.96660983  0.41933294  0.33310359    -0.82400
C1520       C  0.53495379  0.32887428  0.34735546     0.97000
O1521       O  0.52036847  0.34248325  0.35654960    -0.71500
O1522       O  0.53148812  0.39474501  0.35543077    -0.75100
Al1523     Al  0.99845960  0.37470112  0.35420506     1.49000
C1524       C  0.53629889  0.41753927  0.34917532     0.92200
O1525       O  0.53157364  0.39706268  0.31281485    -0.81300
O1526       O  0.96533258  0.35189619  0.31294066    -0.74900
Al1527     Al  0.49912859  0.40634305  0.32361065     1.90100
O1528       O  0.52043656  0.35474110  0.30708104    -0.74000
O1529       O  0.97511790  0.32367523  0.33809998    -0.73800
O1530       O  0.53055230  0.33011167  0.33316096    -0.79500
O1531       O  0.96541863  0.35464938  0.35540303    -0.77700
O1532       O  0.99849506  0.37463249  0.33381808    -1.13800
O1533       O  0.97657334  0.40698780  0.35651796    -0.73000
C1534       C  0.96214062  0.42069211  0.34728337     0.97700
C1535       C  0.53512748  0.37572010  0.30489891     0.94100
Al1536     Al  0.99790450  0.34281664  0.32369522     1.55600
O1537       O  0.52224738  0.42541772  0.33785016    -0.77600
C1538       C  0.96089172  0.33166807  0.34932408     0.98300
C1539       C  0.96153099  0.37332851  0.30509106     0.93200
O1540       O  0.97623061  0.39434169  0.30717875    -0.82900
O1541       O  0.54355491  0.15675285  0.08364087    -0.82400
C1542       C  0.95392852  0.08700641  0.09753478     0.97000
O1543       O  0.96737350  0.10180665  0.10666033    -0.71500
O1544       O  0.51953231  0.09087275  0.10529943    -0.75100
Al1545     Al  0.99935136  0.12384351  0.10432589     1.49000
C1546       C  0.54223232  0.08622533  0.09896609     0.92200
O1547       O  0.52274755  0.09226126  0.06258587    -0.81300
O1548       O  0.97606322  0.15693117  0.06294527    -0.74900
Al1549     Al  0.53113570  0.12442240  0.07378896     1.90100
O1550       O  0.97991074  0.10143959  0.05723935    -0.74000
O1551       O  0.94835417  0.14707342  0.08818782    -0.73800
O1552       O  0.95532616  0.09121719  0.08332468    -0.79500
O1553       O  0.97911052  0.15676762  0.10561299    -0.77700
O1554       O  0.99938165  0.12415725  0.08391904    -1.13800
O1555       O  0.53133745  0.14583238  0.10691699    -0.73000
C1556       C  0.54489449  0.16069369  0.09785115     0.97700
C1557       C  0.00141171  0.08761705  0.05491666     0.94100
Al1558     Al  0.96764059  0.12417171  0.07378597     1.55600
O1559       O  0.55021836  0.10083435  0.08785195    -0.77600
C1560       C  0.95620500  0.16128390  0.09948188     0.98300
C1561       C  0.49752261  0.16186485  0.05539076     0.93200
O1562       O  0.51896034  0.14789291  0.05759378    -0.82900
O1563       O  0.72520648  0.32319799  0.16575011    -0.82400
C1564       C  0.78668007  0.41692732  0.15449953     0.97000
O1565       O  0.78237529  0.39385857  0.14847603    -0.71500
O1566       O  0.77132891  0.34159315  0.14737936    -0.75100
Al1567     Al  0.74936705  0.37381056  0.14942483     1.49000
C1568       C  0.78546647  0.32778116  0.15669796     0.92200
O1569       O  0.77065659  0.35470395  0.19666444    -0.81300
O1570       O  0.72588271  0.39412729  0.19628660    -0.74900
Al1571     Al  0.74800522  0.34236599  0.18010998     1.90100
O1572       O  0.78108912  0.39722135  0.19077513    -0.74000
O1573       O  0.71637265  0.41833859  0.16999592    -0.73800
O1574       O  0.77203019  0.42507334  0.16552644    -0.79500
O1575       O  0.72756674  0.40602085  0.14675459    -0.77700
O1576       O  0.74876321  0.37401134  0.16979949    -1.13800
O1577       O  0.71640842  0.35375812  0.14800981    -0.73000
C1578       C  0.71143278  0.33103686  0.15430524     0.97700
C1579       C  0.78508948  0.37595060  0.19870688     0.94100
Al1580     Al  0.74883508  0.40595297  0.17979259     1.55600
O1581       O  0.78068527  0.32911030  0.17085084    -0.77600
C1582       C  0.71260835  0.41964337  0.15574730     0.98300
C1583       C  0.71125672  0.37308137  0.19840445     0.93200
O1584       O  0.71529109  0.35164672  0.19065192    -0.82900
C1585       C  0.68988489  0.31307271  0.14793582    -0.04000
C1586       C  0.67231099  0.32269637  0.13635216    -0.09700
C1587       C  0.65274203  0.30527127  0.12988604    -0.17400
C1588       C  0.65057368  0.27805646  0.13488551     0.24800
C1589       C  0.66780716  0.26838858  0.14647668    -0.19000
C1590       C  0.68729723  0.28578320  0.15299969    -0.08000
C1591       C  0.63100962  0.25981616  0.12801361    -0.14400
C1592       C  0.61521094  0.24366093  0.12247212    -0.14100
C1593       C  0.59699444  0.22345590  0.11617338     0.24700
C1594       C  0.59748267  0.21771259  0.10049663    -0.19500
C1595       C  0.58035761  0.19743479  0.09446060    -0.08000
C1596       C  0.56263184  0.18258509  0.10407794    -0.04100
C1597       C  0.56216831  0.18866333  0.11981114    -0.09400
C1598       C  0.57924247  0.20897806  0.12580273    -0.17000
H1599       H  0.67379189  0.34362196  0.13222727     0.11100
H1600       H  0.63947852  0.31294676  0.12091789     0.10400
H1601       H  0.66631824  0.24732603  0.15039569     0.10300
H1602       H  0.70061656  0.27773684  0.16183161     0.10900
H1603       H  0.61123521  0.22876430  0.09296077     0.10900
H1604       H  0.58119056  0.19320105  0.08231369     0.10900
H1605       H  0.54867223  0.17766980  0.12750874     0.11000
H1606       H  0.57874534  0.21324603  0.13795989     0.09900
C1607       C  0.93809327  0.18277355  0.10592831    -0.04000
C1608       C  0.94637760  0.19802105  0.11879339    -0.09700
C1609       C  0.92877586  0.21728957  0.12541349    -0.17400
C1610       C  0.90267775  0.22164031  0.11928120     0.24800
C1611       C  0.89440646  0.20690251  0.10633637    -0.19000
C1612       C  0.91197935  0.18759941  0.09969030    -0.08000
C1613       C  0.88419462  0.24080365  0.12643798    -0.14400
C1614       C  0.86822242  0.25650029  0.13231162    -0.14100
C1615       C  0.84829212  0.27502639  0.13874244     0.24700
C1616       C  0.84110110  0.27337063  0.15423786    -0.19500
C1617       C  0.82088619  0.29073931  0.16022605    -0.08000
C1618       C  0.80753624  0.30985985  0.15073335    -0.04100
C1619       C  0.81520822  0.31156426  0.13523961    -0.09400
C1620       C  0.83543198  0.29431271  0.12931617    -0.17000
H1621       H  0.96633808  0.19481691  0.12388129     0.11100
H1622       H  0.93542196  0.22858097  0.13541491     0.10400
H1623       H  0.87425599  0.21011680  0.10147612     0.10300
H1624       H  0.90498366  0.17621563  0.08980445     0.10900
H1625       H  0.85090933  0.25848812  0.16164565     0.10900
H1626       H  0.81544079  0.28894297  0.17219280     0.10900
H1627       H  0.80548828  0.32618438  0.12764232     0.11000
H1628       H  0.84083098  0.29582797  0.11732300     0.09900
C1629       C  0.80847319  0.43486258  0.14826798    -0.04000
C1630       C  0.81408857  0.46050595  0.15496071    -0.09700
C1631       C  0.83384677  0.47789718  0.14858810    -0.17400
C1632       C  0.84820342  0.46990932  0.13545944     0.24800
C1633       C  0.84300554  0.44429637  0.12885044    -0.19000
C1634       C  0.82331226  0.42686211  0.13520841    -0.08000
C1635       C  0.86773463  0.48827087  0.12854095    -0.14400
C1636       C  0.88355947  0.00419609  0.12273754    -0.14100
C1637       C  0.90192150  0.02419575  0.11623979     0.24700
C1638       C  0.90413347  0.02724493  0.10034755    -0.19500
C1639       C  0.92121670  0.04752537  0.09414985    -0.08000
C1640       C  0.93625976  0.06498308  0.10381370    -0.04100
C1641       C  0.93413491  0.06144354  0.11975749    -0.09400
C1642       C  0.91707737  0.04124587  0.12590044    -0.17000
H1643       H  0.80303267  0.46725023  0.16501633     0.11100
H1644       H  0.83770803  0.49769252  0.15379935     0.10400
H1645       H  0.85396578  0.43791613  0.11868140     0.10300
H1646       H  0.81944812  0.40728302  0.12976314     0.10900
H1647       H  0.89246975  0.01413716  0.09276008     0.10900
H1648       H  0.92249898  0.04966516  0.08184154     0.10900
H1649       H  0.94547128  0.07446910  0.12753375     0.11000
H1650       H  0.91551683  0.03910606  0.13820755     0.09900
C1651       C  0.55995653  0.06403012  0.10493309    -0.04000
C1652       C  0.55205971  0.04897845  0.11796235    -0.09700
C1653       C  0.56949179  0.02915697  0.12419145    -0.17400
C1654       C  0.59496986  0.02404148  0.11746551     0.24800
C1655       C  0.60273287  0.03841354  0.10428365    -0.19000
C1656       C  0.58534589  0.05828850  0.09803826    -0.08000
C1657       C  0.61355969  0.00478722  0.12438946    -0.14400
C1658       C  0.62980516  0.98934766  0.13020238    -0.14100
C1659       C  0.65008459  0.47143703  0.13675715     0.24700
C1660       C  0.66697434  0.45595373  0.12716424    -0.19500
C1661       C  0.68718956  0.43903892  0.13338329    -0.08000
C1662       C  0.69085585  0.43739624  0.14932741    -0.04100
C1663       C  0.67367858  0.45292176  0.15891335    -0.09400
C1664       C  0.65341188  0.46986095  0.15264450    -0.17000
H1665       H  0.53262347  0.05285749  0.12352071     0.11100
H1666       H  0.56327651  0.01813359  0.13438918     0.10400
H1667       H  0.62240974  0.03456797  0.09897457     0.10300
H1668       H  0.59196103  0.06943546  0.08796933     0.10900
H1669       H  0.66462157  0.45706772  0.11485622     0.10900
H1670       H  0.70003684  0.42734540  0.12567729     0.10900
H1671       H  0.67597044  0.45206661  0.17122282     0.11000
H1672       H  0.64045863  0.48182577  0.16017212     0.09900
C1673       C  0.55605644  0.37527146  0.29264720    -0.04000
C1674       C  0.57288679  0.39820424  0.28992772    -0.09700
C1675       C  0.59193422  0.39791909  0.27796869    -0.17400
C1676       C  0.59437676  0.37476259  0.26858929     0.24800
C1677       C  0.57784106  0.35181016  0.27126889    -0.19000
C1678       C  0.55883265  0.35202428  0.28321401    -0.08000
C1679       C  0.61380881  0.37451391  0.25620783    -0.14400
C1680       C  0.63017532  0.37422019  0.24587949    -0.14100
C1681       C  0.65006076  0.37407762  0.23372174     0.24700
C1682       C  0.65219771  0.35141885  0.22395186    -0.19500
C1683       C  0.67192877  0.35112118  0.21233936    -0.08000
C1684       C  0.68973668  0.37355534  0.21034638    -0.04100
C1685       C  0.68723278  0.39632859  0.22015057    -0.09400
C1686       C  0.66756457  0.39653925  0.23176253    -0.17000
H1687       H  0.57122236  0.41640566  0.29696881     0.11100
H1688       H  0.60466971  0.41579298  0.27599874     0.10400
H1689       H  0.57956303  0.33377589  0.26408693     0.10300
H1690       H  0.54614748  0.33405486  0.28496862     0.10900
H1691       H  0.63873249  0.33391869  0.22536773     0.10900
H1692       H  0.67332253  0.33330895  0.20497885     0.10900
H1693       H  0.70066967  0.41389133  0.21896183     0.11000
H1694       H  0.66611758  0.41416670  0.23926938     0.09900
C1695       C  0.94023690  0.37393034  0.29303818    -0.04000
C1696       C  0.92721597  0.34966097  0.28824254    -0.09700
C1697       C  0.90802942  0.35030694  0.27635242    -0.17400
C1698       C  0.90152122  0.37519287  0.26917110     0.24800
C1699       C  0.91413956  0.39946441  0.27399913    -0.19000
C1700       C  0.93338572  0.39885706  0.28582167    -0.08000
C1701       C  0.88203674  0.37584063  0.25680074    -0.14400
C1702       C  0.86568381  0.37626842  0.24645864    -0.14100
C1703       C  0.84587429  0.37620217  0.23424685     0.24700
C1704       C  0.84031604  0.40029189  0.22605679    -0.19500
C1705       C  0.82075132  0.40019549  0.21436273    -0.08000
C1706       C  0.80643271  0.37597622  0.21074241    -0.04100
C1707       C  0.81229520  0.35185109  0.21898691    -0.09400
C1708       C  0.83189132  0.35198865  0.23063636    -0.17000
H1709       H  0.93215297  0.33014810  0.29351452     0.11100
H1710       H  0.89839250  0.33138114  0.27270268     0.10400
H1711       H  0.90923061  0.41885110  0.26856085     0.10300
H1712       H  0.94298480  0.41791403  0.28927061     0.10900
H1713       H  0.85099495  0.41917102  0.22875798     0.10900
H1714       H  0.81665665  0.41912288  0.20826563     0.10900
H1715       H  0.80166766  0.33286793  0.21648069     0.11000
H1716       H  0.83603132  0.33322065  0.23688800     0.09900
C1717       C  0.68805887  0.18514607  0.39826796    -0.04000
C1718       C  0.69569413  0.19913085  0.38483051    -0.09700
C1719       C  0.67820840  0.21854982  0.37827051    -0.17400
C1720       C  0.65293724  0.22432966  0.38506637     0.24800
C1721       C  0.64540924  0.21099491  0.39862476    -0.19000
C1722       C  0.66284942  0.19151282  0.40520120    -0.08000
C1723       C  0.63441543  0.24337475  0.37791500    -0.14400
C1724       C  0.61829776  0.25886401  0.37203565    -0.14100
C1725       C  0.59812564  0.27703607  0.36560957     0.24700
C1726       C  0.58324304  0.29437905  0.37524731    -0.19500
C1727       C  0.56287461  0.31135600  0.36924991    -0.08000
C1728       C  0.55706392  0.31123466  0.35348367    -0.04100
C1729       C  0.57238871  0.29400744  0.34381830    -0.09400
C1730       C  0.59278165  0.27695862  0.34987088    -0.17000
H1731       H  0.71495696  0.19470419  0.37921211     0.11100
H1732       H  0.68423738  0.22877076  0.36778316     0.10400
H1733       H  0.62589363  0.21536867  0.40399202     0.10300
H1734       H  0.65641565  0.18115187  0.41556288     0.10900
H1735       H  0.58721288  0.29460369  0.38743912     0.10900
H1736       H  0.55157240  0.32447596  0.37699748     0.10900
H1737       H  0.56843513  0.29349992  0.33163634     0.11000
H1738       H  0.60419272  0.26356876  0.34231060     0.09900
C1739       C  0.93939556  0.31357239  0.35570889    -0.04000
C1740       C  0.92218287  0.32290014  0.36752493    -0.09700
C1741       C  0.90283009  0.30531732  0.37409817    -0.17400
C1742       C  0.90045726  0.27821669  0.36897336     0.24800
C1743       C  0.91723559  0.26886802  0.35708814    -0.19000
C1744       C  0.93654750  0.28642586  0.35046724    -0.08000
C1745       C  0.88111709  0.25983869  0.37602754    -0.14400
C1746       C  0.86528532  0.24382030  0.38173337    -0.14100
C1747       C  0.84674337  0.22378679  0.38801826     0.24700
C1748       C  0.83080660  0.20775401  0.37819973    -0.19500
C1749       C  0.81350082  0.18755154  0.38413404    -0.08000
C1750       C  0.81192337  0.18301916  0.40001429    -0.04100
C1751       C  0.82772916  0.19950107  0.40983622    -0.09400
C1752       C  0.84505930  0.21975246  0.40385409    -0.17000
H1753       H  0.92383871  0.34370003  0.37179088     0.11100
H1754       H  0.88990813  0.31278072  0.38327049     0.10400
H1755       H  0.91556448  0.24792328  0.35303189     0.10300
H1756       H  0.94953472  0.27860713  0.34142427     0.10900
H1757       H  0.83194017  0.21069565  0.36592928     0.10900
H1758       H  0.80153184  0.17531958  0.37625435     0.10900
H1759       H  0.82687837  0.19659847  0.42210828     0.11000
H1760       H  0.85731291  0.23207391  0.41156033     0.09900
C1761       C  0.80846784  0.06476600  0.39775171    -0.04000
C1762       C  0.79863993  0.04690239  0.38635576    -0.09700
C1763       C  0.81595161  0.02731331  0.37974476    -0.17400
C1764       C  0.84331171  0.02536158  0.38439007     0.24800
C1765       C  0.85310892  0.04268695  0.39592336    -0.19000
C1766       C  0.83582339  0.06220626  0.40258968    -0.08000
C1767       C  0.86159884  0.00612682  0.37712002    -0.14400
C1768       C  0.87788710  0.49065998  0.37131976    -0.14100
C1769       C  0.89851465  0.47264903  0.36511272     0.24700
C1770       C  0.91572634  0.45816379  0.37503254    -0.19500
C1771       C  0.93630331  0.44122226  0.36920167    -0.08000
C1772       C  0.94007125  0.43854892  0.35331227    -0.04100
C1773       C  0.92258062  0.45305488  0.34338842    -0.09400
C1774       C  0.90192567  0.47000399  0.34926831    -0.17000
H1775       H  0.77765509  0.04825971  0.38242974     0.06300
H1776       H  0.80809541  0.01395775  0.37087104     0.10400
H1777       H  0.87423451  0.04135507  0.39962960     0.10300
H1778       H  0.84403751  0.07565085  0.41131156     0.10900
H1779       H  0.91334586  0.46008620  0.38730652     0.10900
H1780       H  0.94937167  0.43033910  0.37716481     0.10900
H1781       H  0.92488910  0.45135287  0.33110730     0.11000
H1782       H  0.88874408  0.48114832  0.34147014     0.09900
C1783       C  0.55785502  0.43561015  0.35550810    -0.04000
C1784       C  0.57260564  0.42773387  0.36863026    -0.09700
C1785       C  0.59156751  0.44564038  0.37525195    -0.17400
C1786       C  0.59607230  0.47158080  0.36883916     0.24800
C1787       C  0.58201725  0.47932583  0.35557310    -0.19000
C1788       C  0.56303697  0.46147180  0.34893385    -0.08000
C1789       C  0.61453934  0.99057370  0.37606065    -0.14400
C1790       C  0.62962181  0.00712541  0.38188069    -0.14100
C1791       C  0.64764385  0.02756564  0.38816112     0.24700
C1792       C  0.66378294  0.04341857  0.37833299    -0.19500
C1793       C  0.68128810  0.06340106  0.38424764    -0.08000
C1794       C  0.68289766  0.06785376  0.40011953    -0.04100
C1795       C  0.66655615  0.05185872  0.40994864    -0.09400
C1796       C  0.64901216  0.03182143  0.40398237    -0.17000
H1797       H  0.56912973  0.40794923  0.37395351     0.11100
H1798       H  0.60239699  0.43941597  0.38549789     0.10400
H1799       H  0.58541963  0.49933938  0.35049192     0.10300
H1800       H  0.55208029  0.46811841  0.33882109     0.10900
H1801       H  0.66282983  0.04034180  0.36607268     0.10900
H1802       H  0.69355478  0.07537395  0.37636460     0.10900
H1803       H  0.66731430  0.05483411  0.42221337     0.11000
H1804       H  0.63653249  0.01968494  0.41168938     0.09900
C1805       C  0.74878049  0.43262265  0.54290298    -0.04000
C1806       C  0.77258264  0.43729196  0.53418600    -0.09700
C1807       C  0.77239124  0.45617188  0.52213249    -0.17400
C1808       C  0.74845995  0.47065127  0.51862449     0.24800
C1809       C  0.72482914  0.46654202  0.52740138    -0.19000
C1810       C  0.72496540  0.44766738  0.53947466    -0.08000
C1811       C  0.74807776  0.48943648  0.50590040    -0.14400
C1812       C  0.74788667  0.00519476  0.49525153    -0.14100
C1813       C  0.74788835  0.02457652  0.48280731     0.24700
C1814       C  0.72382652  0.03854167  0.47894112    -0.19500
C1815       C  0.72415333  0.05850402  0.46743978    -0.08000
C1816       C  0.74859936  0.06474652  0.45963622    -0.04100
C1817       C  0.77252439  0.05009252  0.46333176    -0.09400
C1818       C  0.77215632  0.03018153  0.47487120    -0.17000
H1819       H  0.79127355  0.42610053  0.53654399     0.11100
H1820       H  0.79082828  0.45925944  0.51544917     0.10400
H1821       H  0.70621367  0.97771434  0.52481204     0.10300
H1822       H  0.70633331  0.44457338  0.54597170     0.10900
H1823       H  0.70490517  0.03430515  0.48497520     0.10900
H1824       H  0.70534213  0.06927812  0.46479302     0.10900
H1825       H  0.79163957  0.05437490  0.45751736     0.11000
H1826       H  0.79089297  0.51946045  0.47776140     0.09900
C1827       C  0.75061381  0.31565807  0.54353232    -0.04000
C1828       C  0.72620642  0.30973054  0.53563770    -0.09700
C1829       C  0.72587080  0.29014506  0.52396848    -0.17400
C1830       C  0.74988458  0.27620730  0.52000031     0.24800
C1831       C  0.77420375  0.28167550  0.52791266    -0.19000
C1832       C  0.77458809  0.30124944  0.53962154    -0.08000
C1833       C  0.74960781  0.25668128  0.50763614    -0.14400
C1834       C  0.74923502  0.24057957  0.49716146    -0.14100
C1835       C  0.74886736  0.22128839  0.48468431     0.24700
C1836       C  0.77315280  0.20858607  0.47998882    -0.19500
C1837       C  0.77276751  0.18932736  0.46814318    -0.08000
C1838       C  0.74804970  0.18257660  0.46078514    -0.04100
C1839       C  0.72379372  0.19576220  0.46542170    -0.09400
C1840       C  0.72421551  0.21493896  0.47732299    -0.17000
H1841       H  0.70738383  0.32040039  0.53838060     0.11100
H1842       H  0.70692209  0.28605993  0.51794411     0.10400
H1843       H  0.79291991  0.27099535  0.52493953     0.10300
H1844       H  0.79370231  0.30535264  0.54546204     0.10900
H1845       H  0.79236442  0.21340006  0.48556927     0.10900
H1846       H  0.79179880  0.17962323  0.46480003     0.10900
H1847       H  0.70443228  0.19095100  0.46001812     0.11000
H1848       H  0.70528888  0.22465211  0.48085797     0.09900
C1849       C  0.55751591  0.18852692  0.64933622    -0.04000
C1850       C  0.57509839  0.20341483  0.65898793    -0.09700
C1851       C  0.59512698  0.22071410  0.65277654    -0.17400
C1852       C  0.59775509  0.22330311  0.63688519     0.24800
C1853       C  0.58047363  0.20843159  0.62722705    -0.19000
C1854       C  0.56051696  0.19115576  0.63338487    -0.08000
C1855       C  0.61758132  0.24176007  0.63038619    -0.14400
C1856       C  0.63333210  0.25770255  0.62457467    -0.14100
C1857       C  0.65147384  0.27746374  0.61773480     0.24700
C1858       C  0.65025130  0.28286813  0.60200620    -0.19500
C1859       C  0.66742816  0.30270563  0.59548489    -0.08000
C1860       C  0.68592202  0.31740327  0.60467642    -0.04100
C1861       C  0.68706929  0.31164115  0.62045294    -0.09400
C1862       C  0.66997894  0.29181634  0.62691358    -0.17000
H1863       H  0.57331408  0.20177010  0.67130034     0.11100
H1864       H  0.60840394  0.23220364  0.66035175     0.10400
H1865       H  0.58228711  0.21034392  0.61491854     0.10300
H1866       H  0.54732122  0.17998732  0.62562583     0.10900
H1867       H  0.63590764  0.27188817  0.59481165     0.10900
H1868       H  0.66606160  0.30671475  0.58332448     0.10900
H1869       H  0.70115203  0.32251049  0.62785031     0.11000
H1870       H  0.67107289  0.28782190  0.63909331     0.09900
C1871       C  0.81027366  0.31397767  0.60483574    -0.04000
C1872       C  0.80258781  0.29845179  0.61772307    -0.09700
C1873       C  0.82012870  0.27833376  0.62359186    -0.17400
C1874       C  0.84548531  0.27344130  0.61664207     0.24800
C1875       C  0.85303019  0.28836386  0.60362511    -0.19000
C1876       C  0.83555580  0.30848341  0.59774371    -0.08000
C1877       C  0.86418805  0.25381462  0.62314638    -0.14400
C1878       C  0.88042116  0.23805968  0.62871047    -0.14100
C1879       C  0.90031463  0.21982093  0.63536822     0.24700
C1880       C  0.91491455  0.22783006  0.64839193    -0.19500
C1881       C  0.93473934  0.21043289  0.65466137    -0.08000
C1882       C  0.94023485  0.18477412  0.64795498    -0.04100
C1883       C  0.92521723  0.17677581  0.63496221    -0.09400
C1884       C  0.90542383  0.19422254  0.62870962    -0.17000
H1885       H  0.78323840  0.30214092  0.62341466     0.11100
H1886       H  0.81408625  0.26687769  0.63367270     0.10400
H1887       H  0.87259847  0.28472463  0.59814733     0.10300
H1888       H  0.84202988  0.31999195  0.58777250     0.10900
H1889       H  0.91112823  0.24761758  0.65363187     0.10900
H1890       H  0.94593815  0.21719070  0.66465897     0.10900
H1891       H  0.92897890  0.15717899  0.62951234     0.11000
H1892       H  0.89426146  0.18783379  0.61861594     0.09900
C1893       C  0.94258869  0.06026270  0.64913426    -0.04000
C1894       C  0.92960275  0.04015465  0.65811484    -0.09700
C1895       C  0.91015808  0.02262242  0.65157620    -0.17400
C1896       C  0.90341561  0.02517361  0.63606476     0.24800
C1897       C  0.91587844  0.04545004  0.62715176    -0.19000
C1898       C  0.93534083  0.06286110  0.63361994    -0.08000
C1899       C  0.88417897  0.00667480  0.62913801    -0.14400
C1900       C  0.86847024  0.49089821  0.62320426    -0.14100
C1901       C  0.84991658  0.47132414  0.61662095     0.24700
C1902       C  0.84683880  0.46942057  0.60072782    -0.19500
C1903       C  0.82921000  0.44976982  0.59444836    -0.08000
C1904       C  0.81450849  0.43186487  0.60404254    -0.04100
C1905       C  0.81758323  0.43421351  0.61999731    -0.09400
C1906       C  0.83519281  0.45376185  0.62621659    -0.17000
H1907       H  0.93481206  0.03767901  0.67007493     0.11100
H1908       H  0.90059758  0.50693289  0.65856338     0.10400
H1909       H  0.91075531  0.04762969  0.61515371     0.10300
H1910       H  0.94482749  0.07828829  0.62642968     0.10900
H1911       H  0.85817493  0.48297843  0.59320678     0.10900
H1912       H  0.82718039  0.44850801  0.58213652     0.10900
H1913       H  0.80655422  0.42076901  0.62771403     0.11000
H1914       H  0.83745133  0.45506034  0.63852427     0.09900
C1915       C  0.69053211  0.43553458  0.60520802    -0.04000
C1916       C  0.69727594  0.44889957  0.61895753    -0.09700
C1917       C  0.68006505  0.46913926  0.62495101    -0.17400
C1918       C  0.65601338  0.47636953  0.61725042     0.24800
C1919       C  0.64938014  0.46354684  0.60342776    -0.19000
C1920       C  0.66650433  0.44323786  0.59743546    -0.08000
C1921       C  0.63764431  0.49623108  0.62377843    -0.14400
C1922       C  0.62151494  0.51207435  0.62932331    -0.14100
C1923       C  0.60139209  0.03011496  0.63587857     0.24700
C1924       C  0.59524635  0.05511760  0.62877809    -0.19500
C1925       C  0.57492615  0.07215151  0.63482387    -0.08000
C1926       C  0.56042237  0.06430968  0.64803931    -0.04100
C1927       C  0.56697919  0.03927672  0.65519669    -0.09400
C1928       C  0.58734650  0.02230660  0.64914194    -0.17000
H1929       H  0.71559418  0.44338822  0.62522385     0.11100
H1930       H  0.68534170  0.47889597  0.63568232     0.10400
H1931       H  0.63079126  0.46899233  0.59738317     0.10300
H1932       H  0.66080031  0.43340008  0.58680246     0.10900
H1933       H  0.60595941  0.06131656  0.61848370     0.10900
H1934       H  0.57033873  0.09127539  0.62903617     0.10900
H1935       H  0.55622424  0.03268851  0.66539446     0.11000
H1936       H  0.59193797  0.00296497  0.65471296     0.09900
C1937       C  0.55765108  0.12213217  0.71060807    -0.04000
C1938       C  0.57452785  0.09906711  0.71291453    -0.09700
C1939       C  0.59350094  0.09860806  0.72490931    -0.17400
C1940       C  0.59582187  0.12113333  0.73476299     0.24800
C1941       C  0.57916999  0.14416835  0.73252901    -0.19000
C1942       C  0.56025209  0.14470819  0.72053586    -0.08000
C1943       C  0.61538447  0.12078436  0.74709965    -0.14400
C1944       C  0.63188423  0.12102645  0.75737129    -0.14100
C1945       C  0.65185022  0.12169987  0.76950020     0.24700
C1946       C  0.66685586  0.14567495  0.77227178    -0.19500
C1947       C  0.68657729  0.14624623  0.78386916    -0.08000
C1948       C  0.69156728  0.12278780  0.79286591    -0.04100
C1949       C  0.67623380  0.09884368  0.79005887    -0.09400
C1950       C  0.65652764  0.09832910  0.77845506    -0.17000
H1951       H  0.57300006  0.08134389  0.70549564     0.11100
H1952       H  0.60630915  0.08067279  0.72651449     0.10400
H1953       H  0.58077399  0.16171908  0.74007947     0.10300
H1954       H  0.54748464  0.16271397  0.71913358     0.10900
H1955       H  0.66342042  0.16389223  0.76541085     0.10900
H1956       H  0.69804269  0.16498458  0.78571101     0.10900
H1957       H  0.67959204  0.08042854  0.79675374     0.11000
H1958       H  0.64504912  0.07965253  0.77641545     0.09900
C1959       C  0.80844865  0.12651650  0.79278349    -0.04000
C1960       C  0.81344329  0.10276620  0.78406286    -0.09700
C1961       C  0.83303394  0.10297995  0.77240221    -0.17400
C1962       C  0.84792355  0.12688394  0.76928182     0.24800
C1963       C  0.84329361  0.15056194  0.77797221    -0.19000
C1964       C  0.82369427  0.15040472  0.78965496    -0.08000
C1965       C  0.86770479  0.12710844  0.75705509    -0.14400
C1966       C  0.88405068  0.12691610  0.74670540    -0.14100
C1967       C  0.90352664  0.12641194  0.73432991     0.24700
C1968       C  0.90779119  0.14989108  0.72539475    -0.19500
C1969       C  0.92695054  0.14951384  0.71350016    -0.08000
C1970       C  0.94212970  0.12559804  0.71038714    -0.04100
C1971       C  0.93752772  0.10202566  0.71935816    -0.09400
C1972       C  0.91835231  0.10245761  0.73124059    -0.17000
H1973       H  0.80206677  0.08405117  0.78616380     0.11100
H1974       H  0.83644789  0.08453143  0.76575538     0.10400
H1975       H  0.85470729  0.16918714  0.77565947     0.10300
H1976       H  0.82032967  0.16902909  0.79614320     0.10900
H1977       H  0.89641547  0.16854239  0.72767391     0.10900
H1978       H  0.93004370  0.16801595  0.70683807     0.10900
H1979       H  0.94889699  0.08330615  0.71728362     0.11000
H1980       H  0.91520176  0.08415039  0.73807168     0.09900
C1981       C  0.00258900  0.43388208  0.95957179    -0.04000
C1982       C  0.97834759  0.44060275  0.96743765    -0.09700
C1983       C  0.97858107  0.46019956  0.97911612    -0.17400
C1984       C  0.00300688  0.47336636  0.98313546     0.24800
C1985       C  0.52714082  0.46722758  0.97518117    -0.19000
C1986       C  0.52695022  0.44765761  0.96345689    -0.08000
C1987       C  0.00332717  0.49265793  0.99564613    -0.14400
C1988       C  0.00316360  0.00848434  0.00627202    -0.14100
C1989       C  0.00258680  0.02753742  0.01889295     0.24700
C1990       C  0.52666393  0.03381397  0.02684616    -0.19500
C1991       C  0.52623765  0.05299836  0.03875583    -0.08000
C1992       C  0.00168761  0.06625306  0.04284349    -0.04100
C1993       C  0.97751206  0.05944909  0.03495406    -0.09400
C1994       C  0.97797972  0.04021351  0.02308439    -0.17000
H1995       H  0.95922468  0.43049634  0.96468793     0.11100
H1996       H  0.95975278  0.46482894  0.98514391     0.10400
H1997       H  0.54617159  0.47731684  0.97816324     0.10300
H1998       H  0.54594677  0.44298667  0.95762033     0.10900
H1999       H  0.54582712  0.02409698  0.02373816     0.10900
H2000       H  0.54519947  0.05775857  0.04459638     0.10900
H2001       H  0.95825992  0.06916888  0.03785849     0.11000
H2002       H  0.95918679  0.03545263  0.01706393     0.09900
C2003       C  0.49883168  0.31645420  0.96032057    -0.04000
C2004       C  0.97585923  0.29951201  0.96264824    -0.09700
C2005       C  0.97558782  0.28023750  0.97454098    -0.17400
C2006       C  0.49820841  0.27766582  0.98427607     0.24800
C2007       C  0.52129133  0.29416426  0.98191228    -0.19000
C2008       C  0.52164465  0.31338328  0.97001591    -0.08000
C2009       C  0.49763525  0.25839252  0.99680699    -0.14400
C2010       C  0.49736429  0.24237130  0.00735566    -0.14100
C2011       C  0.49748021  0.22297198  0.01983058     0.24700
C2012       C  0.52180322  0.20965845  0.02389397    -0.19500
C2013       C  0.52188469  0.19016365  0.03564651    -0.08000
C2014       C  0.49758593  0.18367128  0.04353336    -0.04100
C2015       C  0.97331286  0.19753349  0.03956813    -0.09400
C2016       C  0.97327761  0.21701483  0.02777135    -0.17000
H2017       H  0.95801910  0.30129931  0.95536352     0.11100
H2018       H  0.95763578  0.26751818  0.97622742     0.10400
H2019       H  0.53894085  0.29234460  0.98934943     0.10300
H2020       H  0.53964902  0.32609977  0.96855165     0.10900
H2021       H  0.54067657  0.21413624  0.01786732     0.10900
H2022       H  0.54094190  0.17996109  0.03844045     0.10900
H2023       H  0.95427593  0.19301335  0.04540634     0.11000
H2024       H  0.95432415  0.22721703  0.02474296     0.09900
C2025       C  0.56303360  0.31547071  0.89904857    -0.04000
C2026       C  0.58381208  0.30311926  0.90778322    -0.09700
C2027       C  0.60102277  0.28342133  0.90119246    -0.17400
C2028       C  0.59747141  0.27574266  0.88588143     0.24800
C2029       C  0.57647968  0.28752472  0.87723109    -0.19000
C2030       C  0.55939455  0.30726621  0.88374848    -0.08000
C2031       C  0.61581567  0.25639776  0.87887690    -0.14400
C2032       C  0.63173649  0.24078384  0.87296012    -0.14100
C2033       C  0.65169741  0.22262014  0.86636579     0.24700
C2034       C  0.65564163  0.22179253  0.85050407    -0.19500
C2035       C  0.67579062  0.20473573  0.84423615    -0.08000
C2036       C  0.69222609  0.18838049  0.85380300    -0.04100
C2037       C  0.68788548  0.18922530  0.86971590    -0.09400
C2038       C  0.66777457  0.20622753  0.87593027    -0.17000
H2039       H  0.58711568  0.30909826  0.91956395     0.11100
H2040       H  0.61728424  0.27442951  0.90797120     0.10400
H2041       H  0.57352631  0.28170614  0.86538760     0.10300
H2042       H  0.54342682  0.31625630  0.87675906     0.10900
H2043       H  0.64330534  0.23446935  0.84300440     0.10900
H2044       H  0.67863088  0.20449747  0.83195335     0.10900
H2045       H  0.70012744  0.17683960  0.87740502     0.11000
H2046       H  0.66491360  0.20674696  0.88821791     0.09900
C2047       C  0.81002533  0.18548410  0.85477454    -0.04000
C2048       C  0.82541679  0.17724145  0.86759344    -0.09700
C2049       C  0.84534655  0.19459079  0.87376714    -0.17400
C2050       C  0.85021198  0.22034557  0.86720486     0.24800
C2051       C  0.83527040  0.22858018  0.85433458    -0.19000
C2052       C  0.81530810  0.21127636  0.84814229    -0.08000
C2053       C  0.87005191  0.23860737  0.87387196    -0.14400
C2054       C  0.88608749  0.25450521  0.87947164    -0.14100
C2055       C  0.90455035  0.27430145  0.88601508     0.24700
C2056       C  0.89768549  0.28766261  0.89965321    -0.19500
C2057       C  0.91501226  0.30779516  0.90567434    -0.08000
C2058       C  0.93947968  0.31478919  0.89811814    -0.04100
C2059       C  0.94641182  0.30091431  0.88454142    -0.09400
C2060       C  0.92901773  0.28085354  0.87852593    -0.17000
H2061       H  0.82184046  0.15752541  0.87297572     0.11100
H2062       H  0.85676810  0.18802453  0.88374290     0.10400
H2063       H  0.83886265  0.24849399  0.84917413     0.10300
H2064       H  0.80382474  0.21821629  0.83827587     0.10900
H2065       H  0.87878300  0.28274502  0.90554152     0.10900
H2066       H  0.90914307  0.31803272  0.91616296     0.10900
H2067       H  0.96508095  0.30583542  0.87843698     0.11000
H2068       H  0.93450799  0.27067789  0.86794716     0.09900
C2069       C  0.93710086  0.43307196  0.89898575    -0.04000
C2070       C  0.92199778  0.45067239  0.90854451    -0.09700
C2071       C  0.90461164  0.47054710  0.90221885    -0.17400
C2072       C  0.90216918  0.47301306  0.88630664     0.24800
C2073       C  0.91744134  0.45588324  0.87675317    -0.19000
C2074       C  0.93480257  0.43610726  0.88301989    -0.08000
C2075       C  0.88347728  0.49248236  0.87965845    -0.14400
C2076       C  0.86748926  0.00801086  0.87369721    -0.14100
C2077       C  0.84784294  0.02620717  0.86679666     0.24700
C2078       C  0.84099668  0.02362834  0.85129728    -0.19500
C2079       C  0.82128943  0.04096176  0.84478711    -0.08000
C2080       C  0.80813349  0.06091451  0.85377796    -0.04100
C2081       C  0.81540742  0.06346878  0.86928910    -0.09400
C2082       C  0.83511997  0.04626153  0.87572719    -0.17000
H2083       H  0.92344302  0.44892884  0.92086590     0.11100
H2084       H  0.89288111  0.98376441  0.90971830     0.10400
H2085       H  0.91571030  0.45760875  0.86443347     0.10300
H2086       H  0.94618675  0.42296254  0.87532300     0.10900
H2087       H  0.85072025  0.50810304  0.84429195     0.10900
H2088       H  0.81606400  0.03849514  0.83283205     0.10900
H2089       H  0.80578571  0.07874649  0.87650023     0.11000
H2090       H  0.84027614  0.04846202  0.88771626     0.09900
C2091       C  0.69035197  0.06442124  0.85512659    -0.04000
C2092       C  0.68430764  0.03906482  0.84822154    -0.09700
C2093       C  0.66428352  0.02184660  0.85444154    -0.17400
C2094       C  0.65004215  0.02972200  0.86761640     0.24800
C2095       C  0.65562428  0.05507046  0.87444945    -0.19000
C2096       C  0.67562072  0.07234890  0.86824204    -0.08000
C2097       C  0.63026613  0.01141255  0.87431576    -0.14400
C2098       C  0.61437565  0.49525647  0.87982959    -0.14100
C2099       C  0.59612241  0.47503491  0.88615819     0.24700
C2100       C  0.57219234  0.46787082  0.87833100    -0.19500
C2101       C  0.55494459  0.44750140  0.88417418    -0.08000
C2102       C  0.56150503  0.43394252  0.89790914    -0.04100
C2103       C  0.58551370  0.44141929  0.90575752    -0.09400
C2104       C  0.60268156  0.46187225  0.89991449    -0.17000
H2105       H  0.69524553  0.03238793  0.83811230     0.11100
H2106       H  0.66011620  0.50225458  0.84907040     0.10400
H2107       H  0.64473766  0.06135040  0.88466266     0.10300
H2108       H  0.67978959  0.09173285  0.87383178     0.10900
H2109       H  0.56698681  0.47785681  0.86764085     0.10900
H2110       H  0.53666063  0.44214427  0.87784180     0.10900
H2111       H  0.59108268  0.43140723  0.91637607     0.11000
H2112       H  0.62119145  0.46723678  0.90604879     0.09900
O2113       O  0.95613525  0.90722018  0.91960896    -0.82400
C2114       C  0.54566954  0.83746151  0.90546948     0.97000
O2115       O  0.53202311  0.85220226  0.89640521    -0.71500
O2116       O  0.97991380  0.84167252  0.89766879    -0.75100
Al2117     Al  0.50039779  0.87445649  0.89879652     1.49000
C2118       C  0.95732357  0.83688681  0.90409233     0.92200
O2119       O  0.97741517  0.84228693  0.94053270    -0.81300
O2120       O  0.52392447  0.90709607  0.94018850    -0.74900
Al2121     Al  0.96879655  0.87466453  0.92941074     1.90100
O2122       O  0.52019951  0.85171283  0.94584048    -0.74000
O2123       O  0.55150114  0.89743496  0.91505613    -0.73800
O2124       O  0.54472811  0.84170927  0.91968540    -0.79500
O2125       O  0.52092266  0.90724178  0.89755060    -0.77700
O2126       O  0.50049352  0.87452074  0.91921080    -1.13800
O2127       O  0.96865957  0.89664163  0.89635144    -0.73000
C2128       C  0.95492481  0.91132670  0.90538936     0.97700
C2129       C  0.49881368  0.83776354  0.94819363     0.94100
Al2130     Al  0.53232056  0.87447348  0.92931953     1.55600
O2131       O  0.94959223  0.85118871  0.91536267    -0.77600
C2132       C  0.54365395  0.91184437  0.90385413     0.98300
C2133       C  0.00252403  0.91201389  0.94777753     0.93200
O2134       O  0.98107651  0.89802102  0.94563698    -0.82900
O2135       O  0.71771424  0.66912562  0.83318464    -0.82400
C2136       C  0.78649978  0.57875119  0.84735382     0.97000
O2137       O  0.77198594  0.59264478  0.85639723    -0.71500
O2138       O  0.78349530  0.64475245  0.85492702    -0.75100
Al2139     Al  0.75041365  0.62481873  0.85396894     1.49000
C2140       C  0.78803850  0.66764769  0.84870544     0.92200
O2141       O  0.78241364  0.64796329  0.81238767    -0.81300
O2142       O  0.71767454  0.60168082  0.81253969    -0.74900
Al2143     Al  0.75016673  0.65659855  0.82341489     1.90100
O2144       O  0.77303894  0.60501244  0.80707269    -0.74000
O2145       O  0.72659943  0.57402742  0.83774023    -0.73800
O2146       O  0.78238707  0.57993896  0.83313960    -0.79500
O2147       O  0.71737103  0.60484816  0.85526099    -0.77700
O2148       O  0.75019401  0.62475460  0.83357128    -1.13800
O2149       O  0.72886657  0.65708478  0.85645902    -0.73000
C2150       C  0.71394406  0.67060174  0.84742146     0.97700
C2151       C  0.78698836  0.62648626  0.80477015     0.94100
Al2152     Al  0.74995087  0.59290726  0.82347654     1.55600
O2153       O  0.77349183  0.67572194  0.83760068    -0.77600
C2154       C  0.71242629  0.58210281  0.84898878     0.98300
C2155       C  0.71308176  0.62305015  0.80482246     0.93200
O2156       O  0.72705733  0.64451757  0.80701290    -0.82900
O2157       O  0.79451926  0.90683936  0.58344687    -0.82400
C2158       C  0.70385471  0.83887109  0.59811414     0.97000
O2159       O  0.71794035  0.85337145  0.60705287    -0.71500
O2160       O  0.76987880  0.84113425  0.60546639    -0.75100
Al2161     Al  0.75021596  0.87457755  0.60443518     1.49000
C2162       C  0.79252990  0.83633797  0.59908081     0.92200
O2163       O  0.77269645  0.84188573  0.56287729    -0.81300
O2164       O  0.72718931  0.90718192  0.56276518    -0.74900
Al2165     Al  0.78166695  0.87427910  0.57380689     1.90100
O2166       O  0.72983368  0.85150541  0.55774359    -0.74000
O2167       O  0.69977980  0.89889033  0.58808241    -0.73800
O2168       O  0.70498030  0.84281840  0.58387764    -0.79500
O2169       O  0.73055610  0.90794279  0.60563395    -0.77700
O2170       O  0.74998976  0.87462690  0.58402222    -1.13800
O2171       O  0.78260494  0.89581787  0.60676288    -0.73000
C2172       C  0.79622563  0.91056193  0.59767898     0.97700
C2173       C  0.75108663  0.83733016  0.55540797     0.94100
Al2174     Al  0.71818003  0.87505653  0.57397460     1.55600
O2175       O  0.80055051  0.85093510  0.58798148    -0.77600
C2176       C  0.70796725  0.91311740  0.59927429     0.98300
C2177       C  0.74860206  0.91143964  0.55506986     0.93200
O2178       O  0.76983086  0.89727900  0.55739375    -0.82900
O2179       O  0.53227365  0.66864165  0.66990332    -0.82400
C2180       C  0.96410355  0.57813451  0.65557625     0.97000
O2181       O  0.97873384  0.59196924  0.64653954    -0.71500
O2182       O  0.96677468  0.64401267  0.64793102    -0.75100
Al2183     Al  0.50001694  0.62431218  0.64900179     1.49000
C2184       C  0.96211692  0.66688551  0.65412730     0.92200
O2185       O  0.96746302  0.64690828  0.69044480    -0.81300
O2186       O  0.53274199  0.60108482  0.69042931    -0.74900
Al2187     Al  0.99976745  0.65584989  0.67955366     1.90100
O2188       O  0.97738533  0.60414369  0.69595897    -0.74000
O2189       O  0.52379309  0.57349971  0.66520365    -0.73800
O2190       O  0.96804412  0.57935599  0.66980511    -0.79500
O2191       O  0.53323714  0.60461805  0.64783752    -0.77700
O2192       O  0.00006020  0.62412312  0.66939335    -1.13800
O2193       O  0.52128697  0.65679914  0.64658519    -0.73000
C2194       C  0.53603586  0.67037343  0.65566875     0.97700
C2195       C  0.96325444  0.62550263  0.69822034     0.94100
Al2196     Al  0.50044331  0.59223949  0.67948588     1.55600
O2197       O  0.97650826  0.67493527  0.66529155    -0.77600
C2198       C  0.53814457  0.58179653  0.65406765     0.98300
C2199       C  0.53679560  0.62236009  0.69830055     0.93200
O2200       O  0.52266810  0.64371838  0.69603867    -0.82900
O2201       O  0.79883583  0.60088504  0.41528850    -0.82400
C2202       C  0.70573941  0.66320302  0.40454989     0.97000
O2203       O  0.72830171  0.65802617  0.39819639    -0.71500
O2204       O  0.78036379  0.64649786  0.39694246    -0.75100
Al2205     Al  0.74801942  0.62477811  0.39933209     1.49000
C2206       C  0.79405567  0.66101844  0.40612956     0.92200
O2207       O  0.76838185  0.64656903  0.44644623    -0.81300
O2208       O  0.72836514  0.60194884  0.44624358    -0.74900
Al2209     Al  0.77993653  0.62387114  0.42975712     1.90100
O2210       O  0.72606940  0.65763961  0.44094083    -0.74000
O2211       O  0.70298592  0.59338196  0.42039991    -0.73800
O2212       O  0.69778596  0.64924109  0.41591378    -0.79500
O2213       O  0.71563665  0.60325623  0.39703177    -0.77700
O2214       O  0.74813322  0.62472293  0.41971535    -1.13800
O2215       O  0.76774090  0.59139012  0.39806632    -0.73000
C2216       C  0.79066306  0.58661359  0.40411160     0.97700
C2217       C  0.74749352  0.66131926  0.44869290     0.94100
Al2218     Al  0.71653095  0.62550650  0.42999914     1.55600
O2219       O  0.79276753  0.65659531  0.42032403    -0.77600
C2220       C  0.70148548  0.58917105  0.40621649     0.98300
C2221       C  0.74924077  0.58696964  0.44807384     0.93200
O2222       O  0.77067470  0.59118765  0.44036236    -0.82900
O2223       O  0.96660923  0.91933297  0.33310325    -0.82400
C2224       C  0.53495256  0.82887428  0.34735643     0.97000
O2225       O  0.52036745  0.84248383  0.35655044    -0.71500
O2226       O  0.53148663  0.89474589  0.35543164    -0.75100
Al2227     Al  0.99845832  0.87470153  0.35420548     1.49000
C2228       C  0.53629733  0.91754011  0.34917612     0.92200
O2229       O  0.53157422  0.89706208  0.31281574    -0.81300
O2230       O  0.96533257  0.85189630  0.31294073    -0.74900
Al2231     Al  0.49912856  0.90634288  0.32361088     1.90100
O2232       O  0.52043706  0.85474057  0.30708176    -0.74000
O2233       O  0.97511665  0.82367549  0.33810023    -0.73800
O2234       O  0.53055119  0.83011131  0.33316192    -0.79500
O2235       O  0.96541751  0.85464973  0.35540322    -0.77700
O2236       O  0.99849450  0.87463252  0.33381848    -1.13800
O2237       O  0.97657156  0.90698784  0.35651780    -0.73000
C2238       C  0.96213906  0.92069182  0.34728296     0.97700
C2239       C  0.53512835  0.87571942  0.30489989     0.94100
Al2240     Al  0.99790402  0.84281653  0.32369571     1.55600
O2241       O  0.52224643  0.92541793  0.33785061    -0.77600
C2242       C  0.96089044  0.83166852  0.34932426     0.98300
C2243       C  0.96153142  0.87332853  0.30509100     0.93200
O2244       O  0.97623141  0.89434144  0.30717862    -0.82900
O2245       O  0.54355480  0.65675308  0.08364088    -0.82400
C2246       C  0.95392929  0.58700647  0.09753655     0.97000
O2247       O  0.96737480  0.60180689  0.10666170    -0.71500
O2248       O  0.51953355  0.59087290  0.10529994    -0.75100
Al2249     Al  0.99935233  0.62384357  0.10432652     1.49000
C2250       C  0.54223336  0.58622556  0.09896633     0.92200
O2251       O  0.52274754  0.59226104  0.06258618    -0.81300
O2252       O  0.97606200  0.65692957  0.06294557    -0.74900
Al2253     Al  0.53113552  0.62442233  0.07378919     1.90100
O2254       O  0.97991002  0.60143768  0.05724053    -0.74000
O2255       O  0.94835436  0.64707330  0.08818888    -0.73800
O2256       O  0.95532627  0.59121668  0.08332639    -0.79500
O2257       O  0.97911123  0.65676765  0.10561377    -0.77700
O2258       O  0.99938175  0.62415693  0.08391964    -1.13800
O2259       O  0.53133831  0.64583235  0.10691710    -0.73000
C2260       C  0.54489479  0.66069388  0.09785115     0.97700
C2261       C  0.00141153  0.58761623  0.05491724     0.94100
Al2262     Al  0.96764023  0.62417069  0.07378701     1.55600
O2263       O  0.55021885  0.60083452  0.08785203    -0.77600
C2264       C  0.95620545  0.66128385  0.09948290     0.98300
C2265       C  0.49752118  0.66186372  0.05539098     0.93200
O2266       O  0.51895938  0.64789256  0.05759409    -0.82900
O2267       O  0.72520561  0.82319895  0.16575050    -0.82400
C2268       C  0.78668051  0.91692669  0.15449885     0.97000
O2269       O  0.78237441  0.89385811  0.14847543    -0.71500
O2270       O  0.77132670  0.84159282  0.14737959    -0.75100
Al2271     Al  0.74936564  0.87381103  0.14942492     1.49000
C2272       C  0.78546525  0.82778187  0.15669825     0.92200
O2273       O  0.77065552  0.85470548  0.19666489    -0.81300
O2274       O  0.72588306  0.89412958  0.19628661    -0.74900
Al2275     Al  0.74800437  0.84236753  0.18011030     1.90100
O2276       O  0.78108975  0.89722208  0.19077490    -0.74000
O2277       O  0.71637364  0.91834092  0.16999590    -0.73800
O2278       O  0.77203147  0.92507345  0.16552596    -0.79500
O2279       O  0.72756614  0.90602191  0.14675457    -0.77700
O2280       O  0.74876269  0.87401256  0.16979957    -1.13800
O2281       O  0.71640629  0.85375947  0.14801065    -0.73000
C2282       C  0.71143108  0.83103802  0.15430597     0.97700
C2283       C  0.78508920  0.87595166  0.19870704     0.94100
Al2284     Al  0.74883579  0.90595437  0.17979243     1.55600
O2285       O  0.78068466  0.82911181  0.17085120    -0.77600
C2286       C  0.71260869  0.91964531  0.15574733     0.98300
C2287       C  0.71125631  0.87308410  0.19840443     0.93200
O2288       O  0.71529014  0.85164917  0.19065200    -0.82900
C2289       C  0.68988280  0.81307397  0.14793677    -0.04000
C2290       C  0.67230776  0.82269825  0.13635381    -0.09700
C2291       C  0.65273841  0.80527342  0.12988781    -0.17400
C2292       C  0.65057082  0.77805819  0.13488667     0.24800
C2293       C  0.66780541  0.76838966  0.14647717    -0.19000
C2294       C  0.68729585  0.78578405  0.15300008    -0.08000
C2295       C  0.63100676  0.75981805  0.12801460    -0.14400
C2296       C  0.61520847  0.74366278  0.12247278    -0.14100
C2297       C  0.59699272  0.72345734  0.11617376     0.24700
C2298       C  0.59748139  0.71771427  0.10049697    -0.19500
C2299       C  0.58035708  0.69743597  0.09446075    -0.08000
C2300       C  0.56263168  0.68258558  0.10407797    -0.04100
C2301       C  0.56216782  0.68866352  0.11981120    -0.09400
C2302       C  0.57924117  0.70897869  0.12580295    -0.17000
H2303       H  0.67378809  0.84362416  0.13222934     0.11100
H2304       H  0.63947409  0.81294943  0.12092017     0.10400
H2305       H  0.66631715  0.74732678  0.15039567     0.10300
H2306       H  0.70061606  0.77773720  0.16183144     0.10900
H2307       H  0.61123368  0.72876657  0.09296123     0.10900
H2308       H  0.58119026  0.69320242  0.08231383     0.10900
H2309       H  0.54867200  0.67766944  0.12750872     0.11000
H2310       H  0.57874375  0.71324641  0.13796013     0.09900
C2311       C  0.93809380  0.68277355  0.10592960    -0.04000
C2312       C  0.94637724  0.69801896  0.11879565    -0.09700
C2313       C  0.92877579  0.71728785  0.12541575    -0.17400
C2314       C  0.90267879  0.72164119  0.11928252     0.24800
C2315       C  0.89440832  0.70690524  0.10633686    -0.19000
C2316       C  0.91198088  0.68760170  0.09969082    -0.08000
C2317       C  0.88419596  0.74080533  0.12643909    -0.14400
C2318       C  0.86822370  0.75650242  0.13231243    -0.14100
C2319       C  0.84829285  0.77502848  0.13874299     0.24700
C2320       C  0.84110610  0.77337720  0.15423918    -0.19500
C2321       C  0.82089049  0.79074532  0.16022721    -0.08000
C2322       C  0.80753551  0.80986094  0.15073363    -0.04100
C2323       C  0.81520332  0.81156105  0.13523908    -0.09400
C2324       C  0.83542772  0.79431001  0.12931578    -0.17000
H2325       H  0.96633683  0.69481295  0.12388428     0.11100
H2326       H  0.93542129  0.72857762  0.13541784     0.10400
H2327       H  0.87425875  0.71012139  0.10147586     0.10300
H2328       H  0.90498580  0.67621958  0.08980426     0.10900
H2329       H  0.85091820  0.75849851  0.16164776     0.10900
H2330       H  0.81544863  0.78895246  0.17219463     0.10900
H2331       H  0.80547955  0.82617732  0.12764102     0.11000
H2332       H  0.84082329  0.79582183  0.11732201     0.09900
C2333       C  0.80847416  0.93486099  0.14826690    -0.04000
C2334       C  0.81409006  0.96050479  0.15495899    -0.09700
C2335       C  0.83384806  0.97789550  0.14858570    -0.17400
C2336       C  0.84820415  0.96990665  0.13545701     0.24800
C2337       C  0.84300614  0.94429302  0.12884882    -0.19000
C2338       C  0.82331298  0.92685933  0.13520745    -0.08000
C2339       C  0.86773473  0.98826793  0.12853761    -0.14400
C2340       C  0.88355985  0.50419888  0.12274125    -0.14100
C2341       C  0.90192213  0.52419775  0.11624312     0.24700
C2342       C  0.90413001  0.52724911  0.10035084    -0.19500
C2343       C  0.92121343  0.54752879  0.09415265    -0.08000
C2344       C  0.93626069  0.56498364  0.10381603    -0.04100
C2345       C  0.93413996  0.56144191  0.11975986    -0.09400
C2346       C  0.91708225  0.54124489  0.12590333    -0.17000
H2347       H  0.80303448  0.96724996  0.16501455     0.11100
H2348       H  0.83770947  0.99769131  0.15379638     0.10400
H2349       H  0.85396603  0.93791189  0.11867982     0.10300
H2350       H  0.81944860  0.90727980  0.12976272     0.10900
H2351       H  0.89246292  0.51414364  0.09276375     0.10900
H2352       H  0.92249241  0.54967041  0.08184433     0.10900
H2353       H  0.94547976  0.57446523  0.12753575     0.11000
H2354       H  0.91552488  0.53910329  0.13821048     0.09900
C2355       C  0.55995797  0.56403047  0.10493314    -0.04000
C2356       C  0.55206309  0.54898077  0.11796346    -0.09700
C2357       C  0.56949545  0.52915920  0.12419219    -0.17400
C2358       C  0.59497187  0.52404156  0.11746484     0.24800
C2359       C  0.60273300  0.53841174  0.10428198    -0.19000
C2360       C  0.58534573  0.55828688  0.09803697    -0.08000
C2361       C  0.61356186  0.50478692  0.12438835    -0.14400
C2362       C  0.62980681  0.48934683  0.13020130    -0.14100
C2363       C  0.65008390  0.97143861  0.13675793     0.24700
C2364       C  0.66697461  0.95595687  0.12716475    -0.19500
C2365       C  0.68719039  0.93904241  0.13338353    -0.08000
C2366       C  0.69085628  0.93739855  0.14932765    -0.04100
C2367       C  0.67367831  0.95292283  0.15891383    -0.09400
C2368       C  0.65341103  0.96986162  0.15264525    -0.17000
H2369       H  0.53262820  0.55286144  0.12352291     0.11100
H2370       H  0.56328166  0.51813734  0.13439072     0.10400
H2371       H  0.62240859  0.53456451  0.09897179     0.10300
H2372       H  0.59195935  0.56943229  0.08796720     0.10900
H2373       H  0.66462204  0.95707170  0.11485672     0.10900
H2374       H  0.70003831  0.92734997  0.12567736     0.10900
H2375       H  0.67596987  0.95206678  0.17122331     0.11000
H2376       H  0.64045709  0.98182529  0.16017307     0.09900
C2377       C  0.55605793  0.87527080  0.29264846    -0.04000
C2378       C  0.57288896  0.89820332  0.28992969    -0.09700
C2379       C  0.59193626  0.89791893  0.27797060    -0.17400
C2380       C  0.59437806  0.87476343  0.26859038     0.24800
C2381       C  0.57784205  0.85181097  0.27126944    -0.19000
C2382       C  0.55883375  0.85202434  0.28321468    -0.08000
C2383       C  0.61380940  0.87451612  0.25620852    -0.14400
C2384       C  0.63017532  0.87422366  0.24587984    -0.14100
C2385       C  0.65006023  0.87408158  0.23372177     0.24700
C2386       C  0.65219414  0.85142462  0.22395038    -0.19500
C2387       C  0.67192516  0.85112669  0.21233786    -0.08000
C2388       C  0.68973609  0.87355882  0.21034629    -0.04100
C2389       C  0.68723505  0.89633052  0.22015185    -0.09400
C2390       C  0.66756691  0.89654139  0.23176389    -0.17000
H2391       H  0.57122500  0.91640414  0.29697130     0.11100
H2392       H  0.60467206  0.91579276  0.27600115     0.10400
H2393       H  0.57956351  0.83377738  0.26408690     0.10300
H2394       H  0.54614813  0.83405510  0.28496878     0.10900
H2395       H  0.63872670  0.83392590  0.22536516     0.10900
H2396       H  0.67331656  0.83331576  0.20497621     0.10900
H2397       H  0.70067432  0.91389166  0.21896422     0.11000
H2398       H  0.66612232  0.91416745  0.23927190     0.09900
C2399       C  0.94023724  0.87393064  0.29303815    -0.04000
C2400       C  0.92721525  0.84966157  0.28824295    -0.09700
C2401       C  0.90802840  0.85030776  0.27635299    -0.17400
C2402       C  0.90152095  0.87519361  0.26917137     0.24800
C2403       C  0.91414027  0.89946490  0.27399900    -0.19000
C2404       C  0.93338675  0.89885733  0.28582139    -0.08000
C2405       C  0.88203643  0.87584141  0.25680101    -0.14400
C2406       C  0.86568360  0.87626909  0.24645884    -0.14100
C2407       C  0.84587417  0.87620285  0.23424699     0.24700
C2408       C  0.84031614  0.90029253  0.22605686    -0.19500
C2409       C  0.82075132  0.90019626  0.21436285    -0.08000
C2410       C  0.80643236  0.87597714  0.21074264    -0.04100
C2411       C  0.81229459  0.85185203  0.21898723    -0.09400
C2412       C  0.83189087  0.85198946  0.23063661    -0.17000
H2413       H  0.93215162  0.83014873  0.29351516     0.11100
H2414       H  0.89839071  0.83138216  0.27270357     0.10400
H2415       H  0.90923189  0.91885154  0.26856051     0.10300
H2416       H  0.94298662  0.91791411  0.28927002     0.10900
H2417       H  0.85099527  0.91917154  0.22875797     0.10900
H2418       H  0.81665685  0.91912363  0.20826570     0.10900
H2419       H  0.80166678  0.83286899  0.21648109     0.11000
H2420       H  0.83603069  0.83322148  0.23688830     0.09900
C2421       C  0.68805823  0.68514596  0.39826830    -0.04000
C2422       C  0.69569342  0.69913148  0.38483109    -0.09700
C2423       C  0.67820727  0.71855023  0.37827127    -0.17400
C2424       C  0.65293586  0.72432915  0.38506708     0.24800
C2425       C  0.64540804  0.71099383  0.39862531    -0.19000
C2426       C  0.66284862  0.69151196  0.40520159    -0.08000
C2427       C  0.63441366  0.74337395  0.37791582    -0.14400
C2428       C  0.61829585  0.75886312  0.37203655    -0.14100
C2429       C  0.59812375  0.77703528  0.36561056     0.24700
C2430       C  0.58324083  0.79437782  0.37524841    -0.19500
C2431       C  0.56287254  0.81135503  0.36925105    -0.08000
C2432       C  0.55706237  0.81123436  0.35348474    -0.04100
C2433       C  0.57238750  0.79400755  0.34381929    -0.09400
C2434       C  0.59278025  0.77695850  0.34987183    -0.17000
H2435       H  0.71495645  0.69470548  0.37921271     0.11100
H2436       H  0.68423608  0.72877167  0.36778407     0.10400
H2437       H  0.62589226  0.71536693  0.40399255     0.10300
H2438       H  0.65641497  0.68115049  0.41556313     0.10900
H2439       H  0.58721033  0.79460196  0.38744027     0.10900
H2440       H  0.55157005  0.82447466  0.37699867     0.10900
H2441       H  0.56843436  0.79350059  0.33163727     0.11000
H2442       H  0.60419162  0.76356902  0.34231147     0.09900
C2443       C  0.93939414  0.81357316  0.35570912    -0.04000
C2444       C  0.92218033  0.82290194  0.36752439    -0.09700
C2445       C  0.90282772  0.80531937  0.37409796    -0.17400
C2446       C  0.90045619  0.77821797  0.36897423     0.24800
C2447       C  0.91723559  0.76886826  0.35708974    -0.19000
C2448       C  0.93654734  0.78642587  0.35046852    -0.08000
C2449       C  0.88111608  0.75984031  0.37602870    -0.14400
C2450       C  0.86528426  0.74382202  0.38173453    -0.14100
C2451       C  0.84674221  0.72378833  0.38801909     0.24700
C2452       C  0.83080746  0.70775421  0.37820022    -0.19500
C2453       C  0.81350183  0.68755132  0.38413422    -0.08000
C2454       C  0.81192256  0.68301984  0.40001448    -0.04100
C2455       C  0.82772620  0.69950322  0.40983674    -0.09400
C2456       C  0.84505618  0.71975504  0.40385493    -0.17000
H2457       H  0.92383518  0.84370248  0.37178951     0.11100
H2458       H  0.88990489  0.81278355  0.38326969     0.10400
H2459       H  0.91556546  0.74792292  0.35303432     0.10300
H2460       H  0.94953551  0.77860636  0.34142620     0.10900
H2461       H  0.83194257  0.71069506  0.36592977     0.10900
H2462       H  0.80153452  0.67531827  0.37625429     0.10900
H2463       H  0.82687384  0.69660142  0.42210882     0.11000
H2464       H  0.85730821  0.73207760  0.41156145     0.09900
C2465       C  0.80846766  0.56476587  0.39775177    -0.04000
C2466       C  0.79863973  0.54690057  0.38635665    -0.09700
C2467       C  0.81595198  0.52731168  0.37974581    -0.17400
C2468       C  0.84331263  0.52536194  0.38439048     0.24800
C2469       C  0.85310973  0.54268890  0.39592302    -0.19000
C2470       C  0.83582369  0.56220791  0.40258918    -0.08000
C2471       C  0.86160052  0.50612767  0.37712054    -0.14400
C2472       C  0.87788447  0.99065849  0.37131897    -0.14100
C2473       C  0.89851136  0.97264697  0.36511186     0.24700
C2474       C  0.91572006  0.95815832  0.37503172    -0.19500
C2475       C  0.93629744  0.94121728  0.36920094    -0.08000
C2476       C  0.94006876  0.93854775  0.35331159    -0.04100
C2477       C  0.92258071  0.95305666  0.34338765    -0.09400
C2478       C  0.90192537  0.97000541  0.34926747    -0.17000
H2479       H  0.77765449  0.54825641  0.38243115     0.06300
H2480       H  0.80809580  0.51395482  0.37087272     0.10400
H2481       H  0.87423570  0.54135858  0.39962878     0.10300
H2482       H  0.84403785  0.57565380  0.41131042     0.10900
H2483       H  0.91333717  0.96007797  0.38730569     0.10900
H2484       H  0.94936355  0.93033159  0.37716415     0.10900
H2485       H  0.92489176  0.95135756  0.33110657     0.11000
H2486       H  0.88874605  0.98115238  0.34146928     0.09900
C2487       C  0.55785272  0.93561172  0.35550905    -0.04000
C2488       C  0.57260131  0.92773740  0.36863228    -0.09700
C2489       C  0.59156294  0.94564453  0.37525370    -0.17400
C2490       C  0.59606949  0.97158359  0.36883958     0.24800
C2491       C  0.58201620  0.97932676  0.35557260    -0.19000
C2492       C  0.56303616  0.96147214  0.34893365    -0.08000
C2493       C  0.61454204  0.49057044  0.37606070    -0.14400
C2494       C  0.62962421  0.50712229  0.38188087    -0.14100
C2495       C  0.64764567  0.52756323  0.38816108     0.24700
C2496       C  0.66378226  0.54341821  0.37833269    -0.19500
C2497       C  0.68128682  0.56340146  0.38424714    -0.08000
C2498       C  0.68289823  0.56785284  0.40011908    -0.04100
C2499       C  0.66655911  0.55185584  0.40994843    -0.09400
C2500       C  0.64901577  0.53181780  0.40398238    -0.17000
H2501       H  0.56912409  0.90795385  0.37395651     0.11100
H2502       H  0.60239096  0.93942161  0.38550039     0.10400
H2503       H  0.58541989  0.99933927  0.35049043     0.10300
H2504       H  0.55208101  0.96811725  0.33882006     0.10900
H2505       H  0.66282768  0.54034244  0.36607233     0.10900
H2506       H  0.69355157  0.57537594  0.37636393     0.10900
H2507       H  0.66731871  0.55483016  0.42221321     0.11000
H2508       H  0.63653802  0.51967975  0.41168960     0.09900
C2509       C  0.74878045  0.93262177  0.54290236    -0.04000
C2510       C  0.77258193  0.93728935  0.53418455    -0.09700
C2511       C  0.77239039  0.95616886  0.52213087    -0.17400
C2512       C  0.74845965  0.97064966  0.51862354     0.24800
C2513       C  0.72482943  0.96654202  0.52740117    -0.19000
C2514       C  0.72496580  0.94766765  0.53947460    -0.08000
C2515       C  0.74807754  0.98943477  0.50589941    -0.14400
C2516       C  0.74788655  0.50519653  0.49525254    -0.14100
C2517       C  0.74788811  0.52457820  0.48280828     0.24700
C2518       C  0.72382598  0.53854245  0.47894160    -0.19500
C2519       C  0.72415269  0.55850446  0.46744007    -0.08000
C2520       C  0.74859887  0.56474743  0.45963676    -0.04100
C2521       C  0.77252424  0.55009452  0.46333290    -0.09400
C2522       C  0.77215628  0.53018393  0.47487254    -0.17000
H2523       H  0.79127242  0.92609687  0.53654202     0.11100
H2524       H  0.79082692  0.95925509  0.51544692     0.10400
H2525       H  0.70621297  0.47771328  0.52481176     0.10300
H2526       H  0.70633417  0.94457487  0.54597225     0.10900
H2527       H  0.70490447  0.53430542  0.48497541     0.10900
H2528       H  0.70534125  0.56927781  0.46479288     0.10900
H2529       H  0.79163955  0.55437740  0.45751879     0.11000
H2530       H  0.79089277  0.01945727  0.47775966     0.09900
C2531       C  0.75061343  0.81565837  0.54353164    -0.04000
C2532       C  0.72620573  0.80973067  0.53563736    -0.09700
C2533       C  0.72586988  0.79014563  0.52396792    -0.17400
C2534       C  0.74988373  0.77620853  0.51999918     0.24800
C2535       C  0.77420320  0.78167686  0.52791121    -0.19000
C2536       C  0.77458776  0.80125032  0.53962032    -0.08000
C2537       C  0.74960668  0.75668294  0.50763481    -0.14400
C2538       C  0.74923365  0.74058135  0.49716008    -0.14100
C2539       C  0.74886587  0.72128991  0.48468308     0.24700
C2540       C  0.77315150  0.70858838  0.47998725    -0.19500
C2541       C  0.77276615  0.68932914  0.46814189    -0.08000
C2542       C  0.74804812  0.68257709  0.46078446    -0.04100
C2543       C  0.72379192  0.69576190  0.46542135    -0.09400
C2544       C  0.72421377  0.71493919  0.47732238    -0.17000
H2545       H  0.70738309  0.82040005  0.53838070     0.11100
H2546       H  0.70692094  0.78606033  0.51794383     0.10400
H2547       H  0.79291940  0.77099718  0.52493766     0.10300
H2548       H  0.79370219  0.80535368  0.54546055     0.10900
H2549       H  0.79236331  0.71340335  0.48556723     0.10900
H2550       H  0.79179759  0.67962564  0.46479847     0.10900
H2551       H  0.70443032  0.69094967  0.46001825     0.11000
H2552       H  0.70528700  0.72465170  0.48085765     0.09900
C2553       C  0.55751564  0.68852760  0.64933593    -0.04000
C2554       C  0.57510102  0.70341251  0.65898744    -0.09700
C2555       C  0.59512907  0.72071213  0.65277581    -0.17400
C2556       C  0.59775373  0.72330447  0.63688446     0.24800
C2557       C  0.58046944  0.70843586  0.62722651    -0.19000
C2558       C  0.56051332  0.69115966  0.63338455    -0.08000
C2559       C  0.61757949  0.74176174  0.63038532    -0.14400
C2560       C  0.63333017  0.75770424  0.62457377    -0.14100
C2561       C  0.65147240  0.77746498  0.61773394     0.24700
C2562       C  0.65024631  0.78287342  0.60200586    -0.19500
C2563       C  0.66742411  0.80271015  0.59548464    -0.08000
C2564       C  0.68592235  0.81740306  0.60467575    -0.04100
C2565       C  0.68707320  0.81163688  0.62045171    -0.09400
C2566       C  0.66998194  0.79181276  0.62691227    -0.17000
H2567       H  0.57331941  0.70176515  0.67129988     0.11100
H2568       H  0.60840831  0.73219934  0.66035086     0.10400
H2569       H  0.58228027  0.71035077  0.61491800     0.10300
H2570       H  0.54731527  0.67999359  0.62562568     0.10900
H2571       H  0.63589922  0.77189720  0.59481167     0.10900
H2572       H  0.66605467  0.80672262  0.58332467     0.10900
H2573       H  0.70115946  0.82250248  0.62784869     0.11000
H2574       H  0.67107872  0.78781509  0.63909158     0.09900
C2575       C  0.81027470  0.81397782  0.60483581    -0.04000
C2576       C  0.80258861  0.79845249  0.61772331    -0.09700
C2577       C  0.82012936  0.77833474  0.62359251    -0.17400
C2578       C  0.84548612  0.77344198  0.61664297     0.24800
C2579       C  0.85303135  0.78836409  0.60362591    -0.19000
C2580       C  0.83555708  0.80848340  0.59774410    -0.08000
C2581       C  0.86418851  0.75381527  0.62314758    -0.14400
C2582       C  0.88042128  0.73806016  0.62871183    -0.14100
C2583       C  0.90031452  0.71982126  0.63536963     0.24700
C2584       C  0.91491656  0.72783152  0.64839239    -0.19500
C2585       C  0.93474132  0.71043430  0.65466178    -0.08000
C2586       C  0.94023476  0.68477437  0.64795625    -0.04100
C2587       C  0.92521499  0.67677489  0.63496449    -0.09400
C2588       C  0.90542155  0.69422165  0.62871197    -0.17000
H2589       H  0.78323903  0.80214177  0.62341470     0.11100
H2590       H  0.81408664  0.76687905  0.63367341     0.10400
H2591       H  0.87259975  0.78472463  0.59814835     0.10300
H2592       H  0.84203139  0.81999157  0.58777281     0.10900
H2593       H  0.91113196  0.74761998  0.65363159     0.10900
H2594       H  0.94594185  0.71719303  0.66465858     0.10900
H2595       H  0.92897500  0.65717714  0.62951531     0.11000
H2596       H  0.89425750  0.68783200  0.61861903     0.09900
C2597       C  0.94258950  0.56026249  0.64913495    -0.04000
C2598       C  0.92960514  0.54015313  0.65811533    -0.09700
C2599       C  0.91016086  0.52262043  0.65157669    -0.17400
C2600       C  0.90341717  0.52517247  0.63606544     0.24800
C2601       C  0.91587847  0.54545017  0.62715265    -0.19000
C2602       C  0.93534052  0.56286165  0.63362083    -0.08000
C2603       C  0.88418072  0.50667338  0.62913869    -0.14400
C2604       C  0.86846853  0.99089966  0.62320356    -0.14100
C2605       C  0.84991514  0.97132547  0.61662022     0.24700
C2606       C  0.84684080  0.96941888  0.60072700    -0.19500
C2607       C  0.82921252  0.94976768  0.59444755    -0.08000
C2608       C  0.81450820  0.93186525  0.60404184    -0.04100
C2609       C  0.81757946  0.93421699  0.61999667    -0.09400
C2610       C  0.83518843  0.95376584  0.62621595    -0.17000
H2611       H  0.93481544  0.53767683  0.67007525     0.11100
H2612       H  0.90059359  0.00693587  0.65856305     0.10400
H2613       H  0.91075439  0.54763051  0.61515477     0.10300
H2614       H  0.94482600  0.57828984  0.62643073     0.10900
H2615       H  0.85817926  0.98297467  0.59320590     0.10900
H2616       H  0.82718565  0.94850344  0.58213566     0.10900
H2617       H  0.80654812  0.92077458  0.62771348     0.11000
H2618       H  0.83744428  0.95506672  0.63852371     0.09900
C2619       C  0.69053321  0.93553508  0.60520748    -0.04000
C2620       C  0.69727705  0.94890028  0.61895693    -0.09700
C2621       C  0.68006622  0.96914020  0.62495028    -0.17400
C2622       C  0.65601461  0.97637050  0.61724960     0.24800
C2623       C  0.64938167  0.96354797  0.60342684    -0.19000
C2624       C  0.66650579  0.94323877  0.59743469    -0.08000
C2625       C  0.63764503  0.99623145  0.62377776    -0.14400
C2626       C  0.62151511  0.01207402  0.62932281    -0.14100
C2627       C  0.60139227  0.53011572  0.63587898     0.24700
C2628       C  0.59524744  0.55511878  0.62877871    -0.19500
C2629       C  0.57492727  0.57215287  0.63482438    -0.08000
C2630       C  0.56042265  0.56431075  0.64803948    -0.04100
C2631       C  0.56697867  0.53927741  0.65519667    -0.09400
C2632       C  0.58734592  0.52230716  0.64914205    -0.17000
H2633       H  0.71559513  0.94338878  0.62522336     0.11100
H2634       H  0.68534273  0.97889688  0.63568163     0.10400
H2635       H  0.63079291  0.96899355  0.59738214     0.10300
H2636       H  0.66080188  0.93340100  0.58680167     0.10900
H2637       H  0.60596112  0.56131787  0.61848455     0.10900
H2638       H  0.57034048  0.59127705  0.62903686     0.10900
H2639       H  0.55622308  0.53268895  0.66539417     0.11000
H2640       H  0.59193667  0.50296522  0.65471289     0.09900
C2641       C  0.55765350  0.62213171  0.71060769    -0.04000
C2642       C  0.57452915  0.59906582  0.71291423    -0.09700
C2643       C  0.59350238  0.59860606  0.72490894    -0.17400
C2644       C  0.59582455  0.62113145  0.73476247     0.24800
C2645       C  0.57917400  0.64416736  0.73252830    -0.19000
C2646       C  0.56025601  0.64470793  0.72053521    -0.08000
C2647       C  0.61538687  0.62078176  0.74709927    -0.14400
C2648       C  0.63188604  0.62102412  0.75737120    -0.14100
C2649       C  0.65185121  0.62169845  0.76950052     0.24700
C2650       C  0.66685642  0.64567385  0.77227198    -0.19500
C2651       C  0.68657740  0.64624589  0.78386960    -0.08000
C2652       C  0.69156734  0.62278788  0.79286670    -0.04100
C2653       C  0.67623402  0.59884355  0.79005988    -0.09400
C2654       C  0.65652834  0.59832822  0.77845584    -0.17000
H2655       H  0.57300025  0.58134239  0.70549550     0.11100
H2656       H  0.60630959  0.58067016  0.72651426     0.10400
H2657       H  0.58077901  0.66171820  0.74007862     0.10300
H2658       H  0.54748951  0.66271437  0.71913284     0.10900
H2659       H  0.66342112  0.66389075  0.76541072     0.10900
H2660       H  0.69804259  0.66498441  0.78571132     0.10900
H2661       H  0.67959214  0.58042875  0.79675506     0.11000
H2662       H  0.64505007  0.57965144  0.77641638     0.09900
C2663       C  0.80844895  0.62651756  0.79278434    -0.04000
C2664       C  0.81344459  0.60276698  0.78406412    -0.09700
C2665       C  0.83303536  0.60298081  0.77240351    -0.17400
C2666       C  0.84792415  0.62688517  0.76928273     0.24800
C2667       C  0.84329316  0.65056346  0.77797272    -0.19000
C2668       C  0.82369372  0.65040617  0.78965542    -0.08000
C2669       C  0.86770581  0.62710974  0.75705614    -0.14400
C2670       C  0.88405228  0.62691771  0.74670668    -0.14100
C2671       C  0.90352894  0.62641379  0.73433146     0.24700
C2672       C  0.90779405  0.64989307  0.72539647    -0.19500
C2673       C  0.92695343  0.64951574  0.71350185    -0.08000
C2674       C  0.94213208  0.62559968  0.71038859    -0.04100
C2675       C  0.93752994  0.60202736  0.71935963    -0.09400
C2676       C  0.91835451  0.60245940  0.73124207    -0.17000
H2677       H  0.80206880  0.58405164  0.78616538     0.11100
H2678       H  0.83645010  0.58453201  0.76575704     0.10400
H2679       H  0.85470618  0.66918894  0.77565971     0.10300
H2680       H  0.82032837  0.66903079  0.79614333     0.10900
H2681       H  0.89641856  0.66854448  0.72767570     0.10900
H2682       H  0.93004681  0.66801791  0.70683982     0.10900
H2683       H  0.94889892  0.58330772  0.71728500     0.11000
H2684       H  0.91520366  0.58415209  0.73807305     0.09900
C2685       C  0.00258750  0.93388005  0.95957287    -0.04000
C2686       C  0.97834733  0.94059484  0.96744146    -0.09700
C2687       C  0.97858057  0.96019048  0.97912050    -0.17400
C2688       C  0.00300488  0.97336218  0.98313763     0.24800
C2689       C  0.52713755  0.96722934  0.97518062    -0.19000
C2690       C  0.52694718  0.94766034  0.96345582    -0.08000
C2691       C  0.00332489  0.99265329  0.99564849    -0.14400
C2692       C  0.00316609  0.50848876  0.00626978    -0.14100
C2693       C  0.00258888  0.52754078  0.01889124     0.24700
C2694       C  0.52666575  0.53381726  0.02684470    -0.19500
C2695       C  0.52623870  0.55300005  0.03875521    -0.08000
C2696       C  0.00168811  0.56625319  0.04284348    -0.04100
C2697       C  0.97751288  0.55944929  0.03495375    -0.09400
C2698       C  0.97798134  0.54021538  0.02308324    -0.17000
H2699       H  0.95922561  0.93048457  0.96469354     0.11100
H2700       H  0.95975334  0.96481527  0.98515037     0.10400
H2701       H  0.54616714  0.97732259  0.97816089     0.10300
H2702       H  0.54594268  0.94299410  0.95761707     0.10900
H2703       H  0.54582931  0.52410145  0.02373630     0.10900
H2704       H  0.54520037  0.55776031  0.04459589     0.10900
H2705       H  0.95826036  0.56916797  0.03785855     0.11000
H2706       H  0.95918859  0.53545456  0.01706259     0.09900
C2707       C  0.49882927  0.81645202  0.96032000    -0.04000
C2708       C  0.97585682  0.79950933  0.96264674    -0.09700
C2709       C  0.97558479  0.78023373  0.97453896    -0.17400
C2710       C  0.49820470  0.77766144  0.98427446     0.24800
C2711       C  0.52128771  0.79416014  0.98191148    -0.19000
C2712       C  0.52164168  0.81338024  0.97001565    -0.08000
C2713       C  0.49763075  0.75838771  0.99680521    -0.14400
C2714       C  0.49735988  0.74236695  0.00735414    -0.14100
C2715       C  0.49747647  0.72296876  0.01982964     0.24700
C2716       C  0.52180065  0.70965892  0.02389463    -0.19500
C2717       C  0.52188283  0.69016493  0.03564761    -0.08000
C2718       C  0.49758368  0.68366978  0.04353335    -0.04100
C2719       C  0.97330946  0.69752867  0.03956670    -0.09400
C2720       C  0.97327350  0.71700913  0.02776945    -0.17000
H2721       H  0.95801715  0.80129711  0.95536170     0.11100
H2722       H  0.95763271  0.76751416  0.97622473     0.10400
H2723       H  0.53893677  0.79233998  0.98934892     0.10300
H2724       H  0.53964611  0.82609689  0.96855206     0.10900
H2725       H  0.54067439  0.71413884  0.01786884     0.10900
H2726       H  0.54094095  0.67996513  0.03844274     0.10900
H2727       H  0.95427219  0.69300643  0.04540408     0.11000
H2728       H  0.95431920  0.72720861  0.02473991     0.09900
C2729       C  0.56303298  0.81546867  0.89904993    -0.04000
C2730       C  0.58381135  0.80311715  0.90778463    -0.09700
C2731       C  0.60102148  0.78341856  0.90119402    -0.17400
C2732       C  0.59746960  0.77573929  0.88588312     0.24800
C2733       C  0.57647784  0.78752131  0.87723278    -0.19000
C2734       C  0.55939331  0.80726345  0.88375000    -0.08000
C2735       C  0.61581355  0.75639416  0.87887858    -0.14400
C2736       C  0.63173418  0.74078034  0.87296157    -0.14100
C2737       C  0.65169498  0.72261699  0.86636689     0.24700
C2738       C  0.65564464  0.72179609  0.85050546    -0.19500
C2739       C  0.67579403  0.70474000  0.84423736    -0.08000
C2740       C  0.69222465  0.68837904  0.85380376    -0.04100
C2741       C  0.68787839  0.68921692  0.86971630    -0.09400
C2742       C  0.66776694  0.70621827  0.87593084    -0.17000
H2743       H  0.58711535  0.80909667  0.91956525     0.11100
H2744       H  0.61728300  0.77442675  0.90797276     0.10400
H2745       H  0.57352409  0.78170225  0.86538940     0.10300
H2746       H  0.54342558  0.81625355  0.87676056     0.10900
H2747       H  0.64331241  0.73447770  0.84300623     0.10900
H2748       H  0.67863875  0.70450713  0.83195484     0.10900
H2749       H  0.70011630  0.67682641  0.87740501     0.11000
H2750       H  0.66490164  0.70673238  0.88821824     0.09900
C2751       C  0.81002601  0.68548415  0.85477491    -0.04000
C2752       C  0.82541986  0.67723975  0.86759258    -0.09700
C2753       C  0.84535050  0.69458838  0.87376597    -0.17400
C2754       C  0.85021435  0.72034423  0.86720464     0.24800
C2755       C  0.83527039  0.72858059  0.85433557    -0.19000
C2756       C  0.81530726  0.71127744  0.84814356    -0.08000
C2757       C  0.87005479  0.73860547  0.87387166    -0.14400
C2758       C  0.88609041  0.75450305  0.87947149    -0.14100
C2759       C  0.90455289  0.77429929  0.88601517     0.24700
C2760       C  0.89768670  0.78766149  0.89965278    -0.19500
C2761       C  0.91501287  0.80779451  0.90567393    -0.08000
C2762       C  0.93948094  0.81478801  0.89811825    -0.04100
C2763       C  0.94641455  0.80091186  0.88454216    -0.09400
C2764       C  0.92902109  0.78085060  0.87852666    -0.17000
H2765       H  0.82184480  0.65752281  0.87297410     0.11100
H2766       H  0.85677393  0.68802078  0.88374079     0.10400
H2767       H  0.83886138  0.74849524  0.84917590     0.10300
H2768       H  0.80382204  0.71821872  0.83827810     0.10900
H2769       H  0.87878358  0.78274441  0.90554061     0.10900
H2770       H  0.90914265  0.81803294  0.91616211     0.10900
H2771       H  0.96508433  0.80583241  0.87843820     0.11000
H2772       H  0.93451241  0.77067406  0.86794832     0.09900
C2773       C  0.93710129  0.93307099  0.89898505    -0.04000
C2774       C  0.92200085  0.95067420  0.90854351    -0.09700
C2775       C  0.90461455  0.97054846  0.90221753    -0.17400
C2776       C  0.90216918  0.97301114  0.88630530     0.24800
C2777       C  0.91743860  0.95587841  0.87675209    -0.19000
C2778       C  0.93480005  0.93610293  0.88301912    -0.08000
C2779       C  0.88347707  0.99248007  0.87965692    -0.14400
C2780       C  0.86748981  0.50801347  0.87369874    -0.14100
C2781       C  0.84784403  0.52620992  0.86679786     0.24700
C2782       C  0.84099506  0.52362791  0.85129901    -0.19500
C2783       C  0.82128790  0.54096110  0.84478860    -0.08000
C2784       C  0.80813466  0.56091667  0.85377870    -0.04100
C2785       C  0.81541163  0.56347442  0.86928922    -0.09400
C2786       C  0.83512416  0.54626746  0.87572754    -0.17000
H2787       H  0.92344840  0.94893329  0.92086493     0.11100
H2788       H  0.89287603  0.48376080  0.90971982     0.10400
H2789       H  0.91570526  0.95760130  0.86443238     0.10300
H2790       H  0.94618199  0.92295588  0.87532243     0.10900
H2791       H  0.85072420  0.00810591  0.84428956     0.10900
H2792       H  0.81606011  0.53849188  0.83283403     0.10900
H2793       H  0.80579217  0.57875454  0.87649967     0.11000
H2794       H  0.84028258  0.54847053  0.88771618     0.09900
C2795       C  0.69035203  0.56442249  0.85512786    -0.04000
C2796       C  0.68430615  0.53906656  0.84822269    -0.09700
C2797       C  0.66428140  0.52184921  0.85444285    -0.17400
C2798       C  0.65004104  0.52972497  0.86761800     0.24800
C2799       C  0.65562502  0.55507280  0.87445129    -0.19000
C2800       C  0.67562198  0.57235039  0.86824370    -0.08000
C2801       C  0.63026396  0.51141659  0.87431730    -0.14400
C2802       C  0.61437856  0.99525192  0.87982826    -0.14100
C2803       C  0.59612545  0.97503053  0.88615714     0.24700
C2804       C  0.57219585  0.96786552  0.87832980    -0.19500
C2805       C  0.55494761  0.94749700  0.88417347    -0.08000
C2806       C  0.56150704  0.93393992  0.89790912    -0.04100
C2807       C  0.58551544  0.94141735  0.90575758    -0.09400
C2808       C  0.60268380  0.96186947  0.89991404    -0.17000
H2809       H  0.69524312  0.53238949  0.83811317     0.11100
H2810       H  0.66011971  0.00225153  0.84906924     0.10400
H2811       H  0.64473931  0.56135294  0.88466474     0.10300
H2812       H  0.67979214  0.59173396  0.87383361     0.10900
H2813       H  0.56699094  0.97785024  0.86763920     0.10900
H2814       H  0.53666396  0.94213924  0.87784095     0.10900
H2815       H  0.59108368  0.93140659  0.91637660     0.11000
H2816       H  0.62119334  0.96723472  0.90604848     0.09900
loop_ 
_geom_bond_atom_site_label_1 
_geom_bond_atom_site_label_2 
_geom_bond_distance 
_geom_bond_site_symmetry_2 
_ccdc_geom_bond_type 
O1           C16   1.261       .  A
O1           Al9   1.905       .  S
C2           O12   1.261       .  A
C2            O3   1.260       .  A
C2          C617   1.477       .  S
O3           Al5   1.899       .  S
O4            C6   1.259       .  A
O4        Al1413   1.887       .  S
Al5          O13   1.888       .  S
Al5        O1412   1.887   1_455  S
Al5        O1423   1.901   1_455  S
Al5          O14   1.785       .  S
C6           O19   1.265       .  A
C6          C650   1.481       .  S
O7         C1425   1.261       .  A
O7           Al9   1.899       .  S
O8         C1429   1.261       .  A
O8          Al18   1.897       .  S
Al9          O22   1.916       .  S
Al9          O19   1.924       .  S
Al9        O1422   1.786       .  S
O10          C17   1.263   1_455  A
O10         Al18   1.913       .  S
O11          C20   1.264       .  A
O11         Al18   1.918       .  S
O12         Al18   1.904       .  S
O13          C20   1.260       .  A
O14         Al18   1.788       .  S
O14       Al1417   1.786   1_455  S
O15          C16   1.260       .  A
O15       Al1413   1.901       .  S
C16         C661   1.480       .  S
C17        O1415   1.261       .  A
C17         C595   1.483       .  S
C20         C694   1.479       .  S
C21          O22   1.264       .  A
C21        O1416   1.261       .  A
C21         C573   1.483       .  S
O23          C38   1.260       .  A
O23         Al31   1.901       .  S
C24          O34   1.260       .  A
C24          O25   1.260       .  A
C24         C672   1.478       .  S
O25         Al27   1.900       .  S
O26          C28   1.260       .  A
O26         Al27   1.887       .  S
Al27         O35   1.887       .  S
Al27         O37   1.904       .  S
Al27         O36   1.784       .  S
C28          O41   1.266       .  A
C28         C639   1.480       .  S
O29          C39   1.261       .  A
O29         Al31   1.894       .  S
O30          C43   1.260       .  A
O30         Al40   1.893       .  S
Al31         O44   1.918       .  S
Al31         O41   1.926       .  S
Al31         O36   1.786       .  S
O32          C39   1.264       .  A
O32         Al40   1.916       .  S
O33          C42   1.266       .  A
O33         Al40   1.923       .  S
O34         Al40   1.903       .  S
O35          C42   1.260       .  A
O36         Al40   1.786       .  S
O37          C38   1.260       .  A
C38         C628   1.479       .  S
C39         C551   1.482       .  S
C42         C683   1.480       .  S
C43          O44   1.263       .  A
C43         C540   1.483       .  S
O45          C60   1.261       .  A
O45         Al53   1.903       .  S
C46          O56   1.261       .  A
C46          O47   1.259       .  A
C46         C452   1.479       .  S
O47         Al49   1.898       .  S
O48          C50   1.261       .  A
O48         Al49   1.893       .  S
Al49         O57   1.890       .  S
Al49         O59   1.901       .  S
Al49         O58   1.785       .  S
C50          O63   1.264       .  A
C50         C463   1.480       .  S
O51          C61   1.261       .  A
O51         Al53   1.897       .  S
O52          C65   1.260       .  A
O52         Al62   1.897       .  S
Al53         O66   1.909       .  S
Al53         O63   1.918       .  S
Al53         O58   1.786       .  S
O54          C61   1.263       .  A
O54         Al62   1.912       .  S
O55          C64   1.265       .  A
O55         Al62   1.918       .  S
O56         Al62   1.904       .  S
O57          C64   1.261       .  A
O58         Al62   1.785       .  S
O59          C60   1.260       .  A
C60         C496   1.478       .  S
C61         C419   1.482       .  S
C64         C507   1.479       .  S
C65          O66   1.262       .  A
C65         C397   1.481       .  S
O67          C82   1.261       .  A
O67       Al1483   1.902   1_455  S
C68          O78   1.261       .  A
C68          O69   1.260       .  A
C68         C485   1.477       .  S
O69       Al1479   1.900       .  S
O70          C72   1.260       .  A
O70       Al1479   1.888       .  S
Al71         O79   1.888       .  S
Al71         O81   1.904       .  S
Al71       O1477   1.900   1_455  S
Al71       O1478   1.888   1_455  S
Al71       O1488   1.783       .  S
C72          O85   1.266       .  A
C72         C474   1.480       .  S
O73          C83   1.261       .  A
O73         Al75   1.893       .  S
O74          C87   1.260       .  A
O74         Al84   1.895       .  S
Al75         O85   1.926       .  S
Al75       O1475   1.902       .  S
Al75       O1496   1.918       .  S
Al75         O80   1.783       .  S
O76          C83   1.264       .  A
O76       Al1492   1.918       .  S
O77          C86   1.265       .  A
O77         Al84   1.922       .  S
O78       Al1492   1.902       .  S
O79          C86   1.260       .  A
O80       Al1479   1.783       .  S
O80       Al1492   1.785       .  S
O81          C82   1.260       .  A
C82         C441   1.479       .  S
C83         C562   1.482       .  S
Al84       O1484   1.918   1_455  S
Al84       O1486   1.902   1_455  S
Al84       O1488   1.785       .  S
C86         C518   1.479       .  S
C87          O88   1.264       .  A
C87         C529   1.482       .  S
O88       Al1483   1.918   1_455  S
O89         C104   1.265       .  A
O89         Al97   1.926       .  S
C90         O100   1.264       .  A
C90          O91   1.259       .  A
C90         C309   1.479       .  S
O91         Al93   1.887       .  S
O92          C94   1.263       .  A
O92         Al93   1.912       .  S
Al93        O101   1.908       .  S
Al93        O103   1.893       .  S
Al93        O102   1.782       .  S
C94         O107   1.261       .  A
C94         C342   1.481       .  S
O95         C105   1.263       .  A
O95         Al97   1.917       .  S
O96         C109   1.264       .  A
O96        Al106   1.914       .  S
Al97        O110   1.896       .  S
Al97        O107   1.900       .  S
Al97        O102   1.785       .  S
O98         C105   1.260       .  A
O98        Al106   1.894       .  S
O99         C108   1.259       .  A
O99        Al106   1.896       .  S
O100       Al106   1.921       .  S
O101        C108   1.261       .  A
O102       Al106   1.786       .  S
O103        C104   1.260       .  A
C104        C353   1.483       .  S
C105        C430   1.481       .  S
C108        C386   1.479       .  S
C109        O110   1.262       .  A
C109        C408   1.480       .  S
O111        C126   1.261       .  A
O111      Al1527   1.900       .  S
C112        O122   1.261       .  A
C112        O113   1.262       .  A
C112        C320   1.480       .  S
O113      Al1523   1.910   1_455  S
O114        C116   1.259       .  A
O114      Al1523   1.889   1_455  S
Al115       O123   1.889       .  S
Al115       O125   1.912       .  S
Al115      O1521   1.910       .  S
Al115      O1522   1.889       .  S
Al115       O124   1.783       .  S
C116        O129   1.264       .  A
C116        C375   1.480       .  S
O117        C127   1.261       .  A
O117       Al119   1.899   1_455  S
O118        C131   1.262       .  A
O118       Al128   1.900       .  S
Al119       O129   1.921   1_655  S
Al119      O1519   1.900       .  S
Al119      O1540   1.913       .  S
Al119      O1532   1.783       .  S
O120        C127   1.263       .  A
O120      Al1536   1.912   1_455  S
O121        C130   1.264       .  A
O121       Al128   1.921       .  S
O122      Al1536   1.900   1_455  S
O123        C130   1.259       .  A
O124       Al128   1.786       .  S
O124      Al1527   1.783       .  S
O125        C126   1.262       .  A
C126        C364   1.482       .  S
C127        C265   1.481       .  S
Al128      O1528   1.912       .  S
Al128      O1530   1.900       .  S
C130        C331   1.479       .  S
C131        O132   1.264       .  A
C131        C287   1.481       .  S
O132      Al1527   1.913       .  S
O133        C148   1.259       .  A
O133       Al141   1.896       .  S
C134        O144   1.261       .  A
C134        O135   1.261       .  A
C134        C232   1.481       .  S
O135       Al137   1.906       .  S
O136        C138   1.260       .  A
O136      Al1545   1.886   1_455  S
Al137       O145   1.887       .  S
Al137      O1544   1.886       .  S
Al137      O1555   1.908       .  S
Al137       O146   1.784       .  S
C138        O151   1.265       .  A
C138        C243   1.480       .  S
O139       C1557   1.260       .  A
O139       Al141   1.893       .  S
O140       C1561   1.262       .  A
O140       Al150   1.900       .  S
Al141       O154   1.914       .  S
Al141       O151   1.923       .  S
Al141      O1554   1.786   1_455  S
O142        C149   1.264       .  A
O142       Al150   1.919       .  S
O143        C152   1.266       .  A
O143       Al150   1.929       .  S
O144       Al150   1.905       .  S
O145        C152   1.260       .  A
O146       Al150   1.786       .  S
O146      Al1549   1.786       .  S
O147        C148   1.260       .  A
O147      Al1545   1.908   1_455  S
C148        C188   1.478       .  S
C149       O1547   1.260       .  A
C149        C584   1.483       .  S
C152        C199   1.482       .  S
C153        O154   1.263   1_655  A
C153       O1548   1.262       .  A
C153        C606   1.483       .  S
O155        C170   1.265       .  A
O155       Al163   1.921       .  S
C156        O166   1.265       .  A
C156        O157   1.259       .  A
C156        C221   1.480       .  S
O157       Al159   1.886       .  S
O158        C160   1.262       .  A
O158       Al159   1.909       .  S
Al159       O167   1.910       .  S
Al159       O169   1.887       .  S
Al159       O168   1.782       .  S
C160        O173   1.261       .  A
C160        C210   1.482       .  S
O161        C171   1.265       .  A
O161       Al163   1.919       .  S
O162        C175   1.263       .  A
O162       Al172   1.914       .  S
Al163       O176   1.899       .  S
Al163       O173   1.903       .  S
Al163       O168   1.785       .  S
O164        C171   1.261       .  A
O164       Al172   1.893       .  S
O165        C174   1.261       .  A
O165       Al172   1.900       .  S
O166       Al172   1.924       .  S
O167        C174   1.262       .  A
O168       Al172   1.785       .  S
O169        C170   1.259       .  A
C170        C177   1.478       .  S
C171        C298   1.482       .  S
C174        C254   1.480       .  S
C175        O176   1.261       .  A
C175        C276   1.481       .  S
C177        C178   1.408       .  A
C177        C182   1.406       .  A
C178        C179   1.398       .  A
C178        H191   1.083       .  S
C179        C180   1.399       .  A
C179        H192   1.084       .  S
C180        C181   1.399       .  A
C180        C183   1.437       .  S
C181        C182   1.397       .  A
C181        H193   1.084       .  S
C182        H194   1.083       .  S
C183        C184   1.204       .  T
C184        C185   1.437       .  S
C185        C186   1.400       .  A
C185        C190   1.398       .  A
C186        C187   1.398       .  A
C186        H195   1.083       .  S
C187        C188   1.406       .  A
C187        H196   1.083       .  S
C188        C189   1.408       .  A
C189        C190   1.397       .  A
C189        H197   1.083       .  S
C190        H198   1.084       .  S
C199        C200   1.408       .  A
C199        C204   1.407       .  A
C200        C201   1.398       .  A
C200        H213   1.083       .  S
C201        C202   1.399       .  A
C201        H214   1.084       .  S
C202        C203   1.401       .  A
C202        C205   1.442       .  S
C203        C204   1.400       .  A
C203        H215   1.083       .  S
C204        H216   1.083       .  S
C205        C206   1.207       .  T
C206        C207   1.442       .  S
C207        C208   1.402       .  A
C207        C212   1.398       .  A
C208        C209   1.402       .  A
C208        H217   1.083       .  S
C209        C210   1.407       .  A
C209        H218   1.083       .  S
C210        C211   1.408       .  A
C211        C212   1.397       .  A
C211        H219   1.083       .  S
C212        H220   1.084       .  S
C221        C222   1.407       .  A
C221        C226   1.408       .  A
C222        C223   1.399       .  A
C222        H235   1.083       .  S
C223        C224   1.400       .  A
C223        H236   1.083       .  S
C224        C225   1.399       .  A
C224        C227   1.440       .  S
C225        C226   1.398       .  A
C225        H237   1.084       .  S
C226        H238   1.083       .  S
C227        C932   1.206       .  T
C228        C229   1.440       .  S
C228        C931   1.206   1_545  T
C229        C230   1.401       .  A
C229        C234   1.398       .  A
C230        C231   1.401       .  A
C230        H239   1.083       .  S
C231        C232   1.407       .  A
C231        H240   1.083       .  S
C232        C233   1.408       .  A
C233        C234   1.396       .  A
C233        H241   1.083       .  S
C234        H242   1.084       .  S
C243        C244   1.408       .  A
C243        C248   1.407       .  A
C244        C245   1.397       .  A
C244        H257   1.083       .  S
C245        C246   1.399       .  A
C245        H258   1.084       .  S
C246        C247   1.400       .  A
C246        C249   1.439       .  S
C247        C248   1.398       .  A
C247        H259   1.083       .  S
C248        H260   1.083       .  S
C249        C250   1.205   1_545  T
C250        C955   1.439       .  S
C251        C252   1.398       .  A
C251        C256   1.401       .  A
C251        C954   1.439       .  S
C252        C253   1.396       .  A
C252        H261   1.084       .  S
C253        C254   1.408       .  A
C253        H262   1.083       .  S
C254        C255   1.407       .  A
C255        C256   1.400       .  A
C255        H263   1.083       .  S
C256        H264   1.083       .  S
C265        C266   1.407       .  A
C265        C270   1.408       .  A
C266        C267   1.399       .  A
C266        H279   1.083       .  S
C267        C268   1.400       .  A
C267        H280   1.083       .  S
C268        C269   1.398       .  A
C268        C271   1.439       .  S
C269        C270   1.397       .  A
C269        H281   1.084       .  S
C270        H282   1.083       .  S
C271        C272   1.206       .  T
C272        C273   1.440       .  S
C273        C274   1.400       .  A
C273        C278   1.399       .  A
C274        C275   1.400       .  A
C274        H283   1.083       .  S
C275        C276   1.407       .  A
C275        H284   1.083       .  S
C276        C277   1.408       .  A
C277        C278   1.397       .  A
C277        H285   1.083       .  S
C278        H286   1.084       .  S
C287        C288   1.407       .  A
C287        C292   1.408       .  A
C288        C289   1.400       .  A
C288        H301   1.083       .  S
C289        C290   1.401       .  A
C289        H302   1.083       .  S
C290        C291   1.399       .  A
C290        C293   1.441       .  S
C291        C292   1.398       .  A
C291        H303   1.084       .  S
C292        H304   1.083       .  S
C293        C294   1.207       .  T
C294        C295   1.441       .  S
C295        C296   1.400       .  A
C295        C300   1.399       .  A
C296        C297   1.400       .  A
C296        H305   1.083       .  S
C297        C298   1.408       .  A
C297        H306   1.083       .  S
C298        C299   1.407       .  A
C299        C300   1.398       .  A
C299        H307   1.083       .  S
C300        H308   1.084       .  S
C309        C310   1.408       .  A
C309        C314   1.407       .  A
C310        C311   1.397       .  A
C310        H323   1.083       .  S
C311        C312   1.398       .  A
C311        H324   1.084       .  S
C312        C313   1.400       .  A
C312        C315   1.438       .  S
C313        C314   1.398       .  A
C313        H325   1.083       .  S
C314        H326   1.083       .  S
C315        C316   1.205       .  T
C316        C317   1.438       .  S
C317        C318   1.398       .  A
C317        C322   1.401       .  A
C318        C319   1.396       .  A
C318        H327   1.084       .  S
C319        C320   1.408       .  A
C319        H328   1.083       .  S
C320        C321   1.407       .  A
C321        C322   1.400       .  A
C321        H329   1.083       .  S
C322        H330   1.083       .  S
C331        C332   1.407       .  A
C331        C336   1.407       .  A
C332        C333   1.398       .  A
C332        H345   1.083       .  S
C333        C334   1.399       .  A
C333        H346   1.083       .  S
C334        C335   1.400       .  A
C334        C337   1.439       .  S
C335        C336   1.398       .  A
C335        H347   1.083       .  S
C336        H348   1.083       .  S
C337        C338   1.206       .  T
C338        C339   1.440       .  S
C339        C340   1.398       .  A
C339        C344   1.401       .  A
C340        C341   1.396       .  A
C340        H349   1.084       .  S
C341        C342   1.408       .  A
C341        H350   1.083       .  S
C342        C343   1.407       .  A
C343        C344   1.400       .  A
C343        H351   1.083       .  S
C344        H352   1.083       .  S
C353        C354   1.408       .  A
C353        C358   1.407       .  A
C354        C355   1.400       .  A
C354        H367   1.083       .  S
C355        C356   1.400       .  A
C355        H368   1.083       .  S
C356        C357   1.400       .  A
C356        C359   1.442       .  S
C357        C358   1.399       .  A
C357        H369   1.083       .  S
C358        H370   1.083       .  S
C359       C1064   1.208   1_545  T
C360        C361   1.442       .  S
C360       C1063   1.208       .  T
C361        C362   1.399       .  A
C361        C366   1.401       .  A
C362        C363   1.397       .  A
C362        H371   1.084       .  S
C363        C364   1.408       .  A
C363        H372   1.083       .  S
C364        C365   1.407       .  A
C365        C366   1.401       .  A
C365        H373   1.083       .  S
C366        H374   1.083       .  S
C375        C376   1.408       .  A
C375        C380   1.407       .  A
C376        C377   1.398       .  A
C376        H389   1.083       .  S
C377        C378   1.399       .  A
C377        H390   1.084       .  S
C378        C379   1.400       .  A
C378       C1085   1.439       .  S
C379        C380   1.398       .  A
C379        H391   1.083       .  S
C380        H392   1.083       .  S
C381       C1082   1.439       .  S
C381        C382   1.205   1_565  T
C382        C383   1.438       .  S
C383        C384   1.398       .  A
C383        C388   1.401       .  A
C384        C385   1.395       .  A
C384        H393   1.084       .  S
C385        C386   1.407       .  A
C385        H394   1.083       .  S
C386        C387   1.407       .  A
C387        C388   1.400       .  A
C387        H395   1.083       .  S
C388        H396   1.083       .  S
C397        C398   1.408       .  A
C397        C402   1.407       .  A
C398        C399   1.398       .  A
C398        H411   1.083       .  S
C399        C400   1.399       .  A
C399        H412   1.084       .  S
C400        C401   1.400       .  A
C400        C403   1.440       .  S
C401        C402   1.399       .  A
C401       H1117   1.083       .  S
C402        H414   1.083       .  S
C403       C1108   1.206       .  T
C404        C405   1.440       .  S
C404       C1107   1.206   1_545  T
C405        C406   1.399       .  A
C405        C410   1.400       .  A
C406        C407   1.398       .  A
C406        H415   1.084       .  S
C407        C408   1.408       .  A
C407        H416   1.083       .  S
C408        C409   1.407       .  A
C409        C410   1.399       .  A
C409        H417   1.083       .  S
C410       H1122   1.083       .  S
H413       C1105   1.083       .  S
H418       C1114   1.083       .  S
C419        C420   1.408       .  A
C419        C424   1.407       .  A
C420        C421   1.398       .  A
C420        H433   1.083       .  S
C421        C422   1.399       .  A
C421        H434   1.084       .  S
C422        C423   1.400       .  A
C422        C425   1.441       .  S
C423        C424   1.400       .  A
C423        H435   1.083       .  S
C424        H436   1.083       .  S
C425        C426   1.207       .  T
C426        C427   1.441       .  S
C427        C428   1.399       .  A
C427        C432   1.400       .  A
C428        C429   1.398       .  A
C428        H437   1.084       .  S
C429        C430   1.407       .  A
C429        H438   1.083       .  S
C430        C431   1.407       .  A
C431        C432   1.399       .  A
C431        H439   1.083       .  S
C432        H440   1.083       .  S
C441        C442   1.406       .  A
C441        C446   1.408       .  A
C442        C443   1.400       .  A
C442        H455   1.083       .  S
C443        C444   1.401       .  A
C443        H456   1.083       .  S
C444        C445   1.397       .  A
C444        C447   1.438       .  S
C445        C446   1.395       .  A
C445        H457   1.084       .  S
C446        H458   1.083       .  S
C447        C448   1.205       .  T
C448        C449   1.438       .  S
C449        C450   1.401       .  A
C449        C454   1.397       .  A
C450        C451   1.400       .  A
C450        H459   1.083       .  S
C451        C452   1.406       .  A
C451        H460   1.083       .  S
C452        C453   1.409       .  A
C453        C454   1.395       .  A
C453        H461   1.083       .  S
C454        H462   1.084       .  S
C463        C464   1.407       .  A
C463        C468   1.407       .  A
C464        C465   1.399       .  A
C464        H477   1.083       .  S
C465        C466   1.400       .  A
C465        H478   1.083       .  S
C466        C467   1.399       .  A
C466        C469   1.439       .  S
C467        C468   1.397       .  A
C467        H479   1.083       .  S
C468        H480   1.083       .  S
C469        C470   1.206       .  T
C470        C471   1.439       .  S
C471        C472   1.400       .  A
C471        C476   1.399       .  A
C472        C473   1.398       .  A
C472        H481   1.083       .  S
C473        C474   1.407       .  A
C473        H482   1.083       .  S
C474        C475   1.408       .  A
C475        C476   1.398       .  A
C475        H483   1.083       .  S
C476        H484   1.084       .  S
C485        C486   1.406       .  A
C485        C490   1.408       .  A
C486        C487   1.400       .  A
C486        H499   1.083       .  S
C487        C488   1.401       .  A
C487       H1204   1.083       .  S
C488        C489   1.397       .  A
C488        C491   1.436       .  S
C489        C490   1.394       .  A
C489        H501   1.084       .  S
C490        H502   1.083       .  S
C491       C1196   1.204   1_545  T
C492        C493   1.436       .  S
C492       C1195   1.204       .  T
C493        C494   1.401       .  A
C493        C498   1.397       .  A
C494        C495   1.400       .  A
C494        H503   1.083       .  S
C495        C496   1.406       .  A
C495        H504   1.083       .  S
C496        C497   1.408       .  A
C497        C498   1.394       .  A
C497        H505   1.083       .  S
C498        H506   1.084       .  S
H500       C1191   1.083       .  S
C507        C508   1.407       .  A
C507        C512   1.407       .  A
C508        C509   1.398       .  A
C508        H521   1.083       .  S
C509        C510   1.399       .  A
C509        H522   1.084       .  S
C510        C511   1.399       .  A
C510        C513   1.438       .  S
C511        C512   1.398       .  A
C511        H523   1.083       .  S
C512        H524   1.083       .  S
C513        C514   1.205       .  T
C514       C1219   1.438       .  S
C515        C516   1.399       .  A
C515        C520   1.399       .  A
C515       C1218   1.438       .  S
C516        C517   1.398       .  A
C516        H525   1.084       .  S
C517        C518   1.408       .  A
C517        H526   1.083       .  S
C518        C519   1.407       .  A
C519        C520   1.398       .  A
C519        H527   1.083       .  S
C520        H528   1.083       .  S
C529        C530   1.408       .  A
C529        C534   1.408       .  A
C530        C531   1.400       .  A
C530        H543   1.083       .  S
C531        C532   1.400       .  A
C531        H544   1.083       .  S
C532        C533   1.399       .  A
C532        C535   1.441       .  S
C533        C534   1.398       .  A
C533        H545   1.084       .  S
C534        H546   1.083       .  S
C535        C536   1.207       .  T
C536        C537   1.441       .  S
C537        C538   1.400       .  A
C537        C542   1.400       .  A
C538        C539   1.399       .  A
C538        H547   1.084       .  S
C539        C540   1.408       .  A
C539        H548   1.083       .  S
C540        C541   1.408       .  A
C541        C542   1.399       .  A
C541        H549   1.083       .  S
C542        H550   1.083       .  S
C551        C552   1.407       .  A
C551        C556   1.408       .  A
C552        C553   1.398       .  A
C552        H565   1.083       .  S
C553        C554   1.399       .  A
C553        H566   1.084       .  S
C554        C555   1.400       .  A
C554        C557   1.441       .  S
C555        C556   1.400       .  A
C555        H567   1.083       .  S
C556        H568   1.083       .  S
C557        C558   1.207       .  T
C558        C559   1.441       .  S
C559        C560   1.400       .  A
C559        C564   1.400       .  A
C560        C561   1.399       .  A
C560        H569   1.083       .  S
C561        C562   1.407       .  A
C561        H570   1.083       .  S
C562        C563   1.408       .  A
C563        C564   1.399       .  A
C563        H571   1.083       .  S
C564        H572   1.084       .  S
C573        C574   1.408       .  A
C573       C1986   1.408       .  A
C574        C575   1.399       .  A
C574        H587   1.083       .  S
C575        C576   1.400       .  A
C575        H588   1.084       .  S
C576       C1985   1.401       .  A
C576        C579   1.443       .  S
C577        C578   1.401       .  A
C577       C1984   1.401       .  A
C577        H589   1.083       .  S
C578       C1981   1.408       .  A
C578        H590   1.083       .  S
C579       C1284   1.208   1_556  T
C580        C581   1.443       .  S
C580       C1283   1.208   1_544  T
C581        C586   1.400       .  A
C581       C1990   1.400       .  A
C582        C583   1.400       .  A
C582       C1989   1.400       .  A
C582        H591   1.083       .  S
C583       C1992   1.408       .  A
C583        H592   1.083       .  S
C584        C585   1.407       .  A
C584       C1991   1.408       .  A
C585        C586   1.399       .  A
C585        H593   1.083       .  S
C586        H594   1.083       .  S
C595        C600   1.408   1_655  A
C595       C2004   1.407       .  A
C596        C597   1.400       .  A
C596       C2003   1.407       .  A
C596        H609   1.083       .  S
C597       C2006   1.400       .  A
C597        H610   1.083       .  S
C598        C599   1.399   1_655  A
C598       C2005   1.400       .  A
C598        C601   1.442       .  S
C599        C600   1.399       .  A
C599        H611   1.084       .  S
C600        H612   1.083       .  S
C601        C602   1.207   1_556  T
C602        C603   1.442       .  S
C603        C604   1.399   1_655  A
C603       C2016   1.401       .  A
C604        C605   1.398       .  A
C604        H613   1.084       .  S
C605        C606   1.408   1_455  A
C605        H614   1.083       .  S
C606       C2015   1.408       .  A
C607        C608   1.401       .  A
C607       C2014   1.408       .  A
C607        H615   1.083       .  S
C608       C2011   1.401       .  A
C608        H616   1.083       .  S
C617        C618   1.405       .  A
C617        C622   1.408       .  A
C618        C619   1.400       .  A
C618        H631   1.083       .  S
C619        C620   1.401       .  A
C619        H632   1.083       .  S
C620        C621   1.397       .  A
C620        C623   1.438       .  S
C621        C622   1.395       .  A
C621        H633   1.084       .  S
C622        H634   1.083       .  S
C623        C624   1.205       .  T
C624        C625   1.437       .  S
C625        C626   1.401       .  A
C625        C630   1.397       .  A
C626        C627   1.400       .  A
C626        H635   1.083       .  S
C627        C628   1.406       .  A
C627        H636   1.083       .  S
C628        C629   1.408       .  A
C629        C630   1.395       .  A
C629        H637   1.083       .  S
C630        H638   1.084       .  S
C639        C640   1.408       .  A
C639        C644   1.407       .  A
C640        C641   1.398       .  A
C640        H653   1.083       .  S
C641        C642   1.399       .  A
C641        H654   1.084       .  S
C642        C643   1.400       .  A
C642        C645   1.439       .  S
C643        C644   1.398       .  A
C643        H655   1.083       .  S
C644        H656   1.083       .  S
C645        C646   1.206       .  T
C646        C647   1.439       .  S
C647        C648   1.400       .  A
C647        C652   1.399       .  A
C648        C649   1.399       .  A
C648        H657   1.083       .  S
C649        C650   1.407       .  A
C649        H658   1.083       .  S
C650        C651   1.408       .  A
C651        C652   1.398       .  A
C651        H659   1.083       .  S
C652        H660   1.084       .  S
C661        C662   1.407       .  A
C661        C666   1.408       .  A
C662        C663   1.401       .  A
C662        H675   1.083       .  S
C663        C664   1.402       .  A
C663       H1380   1.083       .  S
C664        C665   1.397       .  A
C664        C667   1.439       .  S
C665        C666   1.395       .  A
C665        H677   1.084       .  S
C666        H678   1.083       .  S
C667       C1372   1.205       .  T
C668        C669   1.439       .  S
C668       C1371   1.205   1_545  T
C669        C670   1.402       .  A
C669        C674   1.397       .  A
C670        C671   1.401       .  A
C670       H1383   1.083       .  S
C671        C672   1.406       .  A
C671        H680   1.083       .  S
C672        C673   1.408       .  A
C673        C674   1.395       .  A
C673        H681   1.083       .  S
C674        H682   1.084       .  S
H676       C1367   1.083       .  S
H679       C1374   1.083       .  S
C683        C684   1.407       .  A
C683        C688   1.408       .  A
C684        C685   1.398       .  A
C684        H697   1.083       .  S
C685        C686   1.399       .  A
C685       H1402   1.083       .  S
C686        C687   1.399       .  A
C686        C689   1.438       .  S
C687        C688   1.398       .  A
C687        H699   1.084       .  S
C688        H700   1.083       .  S
C689       C1394   1.205   1_545  T
C690        C691   1.438       .  S
C690       C1393   1.205       .  T
C691        C692   1.399       .  A
C691        C696   1.400       .  A
C692        C693   1.398       .  A
C692        H701   1.084       .  S
C693        C694   1.407       .  A
C693        H702   1.083       .  S
C694        C695   1.407       .  A
C695        C696   1.398       .  A
C695        H703   1.083       .  S
C696        H704   1.083       .  S
H698       C1389   1.083       .  S
O705        C720   1.261       .  A
O705       Al713   1.905       .  S
C706        O716   1.261       .  A
C706        O707   1.260       .  A
C706       C1321   1.477       .  S
O707       Al709   1.899       .  S
O708        C710   1.259       .  A
O708      Al2117   1.887       .  S
Al709      O2116   1.887   1_455  S
Al709       O717   1.888       .  S
Al709      O2127   1.901   1_455  S
Al709       O718   1.785       .  S
C710        O723   1.265       .  A
C710       C1354   1.481       .  S
O711       C2129   1.261       .  A
O711       Al713   1.899       .  S
O712       C2133   1.261       .  A
O712       Al722   1.897       .  S
Al713       O726   1.916       .  S
Al713       O723   1.924       .  S
Al713      O2126   1.786       .  S
O714        C721   1.263   1_455  A
O714       Al722   1.913       .  S
O715        C724   1.264       .  A
O715       Al722   1.918       .  S
O716       Al722   1.904       .  S
O717        C724   1.260       .  A
O718      Al2121   1.786   1_455  S
O718       Al722   1.788       .  S
O719        C720   1.260       .  A
O719      Al2117   1.901       .  S
C720       C1365   1.480       .  S
C721       O2119   1.261       .  A
C721       C1299   1.483       .  S
C724       C1398   1.479       .  S
C725       O2120   1.261       .  A
C725        O726   1.264       .  A
C725       C1277   1.483       .  S
O727        C742   1.260       .  A
O727       Al735   1.901       .  S
C728        O738   1.260       .  A
C728        O729   1.260       .  A
C728       C1376   1.478       .  S
O729       Al731   1.900       .  S
O730        C732   1.260       .  A
O730       Al731   1.887       .  S
Al731       O739   1.887       .  S
Al731       O741   1.904       .  S
Al731       O740   1.784       .  S
C732        O745   1.266       .  A
C732       C1343   1.480       .  S
O733        C743   1.261       .  A
O733       Al735   1.894       .  S
O734        C747   1.260       .  A
O734       Al744   1.893       .  S
Al735       O748   1.918       .  S
Al735       O745   1.926       .  S
Al735       O740   1.786       .  S
O736        C743   1.264       .  A
O736       Al744   1.916       .  S
O737        C746   1.266       .  A
O737       Al744   1.923       .  S
O738       Al744   1.903       .  S
O739        C746   1.260       .  A
O740       Al744   1.786       .  S
O741        C742   1.260       .  A
C742       C1332   1.479       .  S
C743       C1255   1.482       .  S
C746       C1387   1.480       .  S
C747        O748   1.263       .  A
C747       C1244   1.483       .  S
O749        C764   1.261       .  A
O749       Al757   1.903       .  S
C750        O760   1.261       .  A
C750        O751   1.259       .  A
C750       C1156   1.479       .  S
O751       Al753   1.898       .  S
O752        C754   1.261       .  A
O752       Al753   1.893       .  S
Al753       O761   1.890       .  S
Al753       O763   1.901       .  S
Al753       O762   1.785       .  S
C754        O767   1.264       .  A
C754       C1167   1.480       .  S
O755        C765   1.261       .  A
O755       Al757   1.897       .  S
O756        C769   1.260       .  A
O756       Al766   1.897       .  S
Al757       O770   1.909       .  S
Al757       O767   1.918       .  S
Al757       O762   1.786       .  S
O758        C765   1.263       .  A
O758       Al766   1.912       .  S
O759        C768   1.265       .  A
O759       Al766   1.918       .  S
O760       Al766   1.904       .  S
O761        C768   1.261       .  A
O762       Al766   1.785       .  S
O763        C764   1.260       .  A
C764       C1200   1.478       .  S
C765       C1123   1.482       .  S
C768       C1211   1.479       .  S
C769        O770   1.262       .  A
C769       C1101   1.481       .  S
O771        C786   1.261       .  A
O771      Al2187   1.902   1_455  S
C772        O782   1.261       .  A
C772        O773   1.260       .  A
C772       C1189   1.477       .  S
O773      Al2183   1.900       .  S
O774        C776   1.260       .  A
O774      Al2183   1.888       .  S
Al775      O2181   1.900   1_455  S
Al775      O2182   1.888   1_455  S
Al775       O783   1.888       .  S
Al775       O785   1.904       .  S
Al775      O2192   1.783       .  S
C776        O789   1.266       .  A
C776       C1178   1.480       .  S
O777        C787   1.261       .  A
O777       Al779   1.893       .  S
O778        C791   1.260       .  A
O778       Al788   1.895       .  S
Al779      O2179   1.902       .  S
Al779      O2200   1.918       .  S
Al779       O789   1.926       .  S
Al779       O784   1.783       .  S
O780        C787   1.264       .  A
O780      Al2196   1.918       .  S
O781        C790   1.265       .  A
O781       Al788   1.922       .  S
O782      Al2196   1.902       .  S
O783        C790   1.260       .  A
O784      Al2183   1.783       .  S
O784      Al2196   1.785       .  S
O785        C786   1.260       .  A
C786       C1145   1.479       .  S
C787       C1266   1.482       .  S
Al788      O2188   1.918   1_455  S
Al788      O2190   1.902   1_455  S
Al788      O2192   1.785       .  S
C790       C1222   1.479       .  S
C791        O792   1.264       .  A
C791       C1233   1.482       .  S
O792      Al2187   1.918   1_455  S
O793        C808   1.265       .  A
O793       Al801   1.926       .  S
C794        O804   1.264       .  A
C794        O795   1.259       .  A
C794       C1013   1.479       .  S
O795       Al797   1.887       .  S
O796        C798   1.263       .  A
O796       Al797   1.912       .  S
Al797       O805   1.908       .  S
Al797       O807   1.893       .  S
Al797       O806   1.782       .  S
C798        O811   1.261       .  A
C798       C1046   1.481       .  S
O799        C809   1.263       .  A
O799       Al801   1.917       .  S
O800        C813   1.264       .  A
O800       Al810   1.914       .  S
Al801       O814   1.896       .  S
Al801       O811   1.900       .  S
Al801       O806   1.785       .  S
O802        C809   1.260       .  A
O802       Al810   1.894       .  S
O803        C812   1.259       .  A
O803       Al810   1.896       .  S
O804       Al810   1.921       .  S
O805        C812   1.261       .  A
O806       Al810   1.786       .  S
O807        C808   1.260       .  A
C808       C1057   1.483       .  S
C809       C1134   1.481       .  S
C812       C1090   1.479       .  S
C813        O814   1.262       .  A
C813       C1112   1.480       .  S
O815        C830   1.261       .  A
O815      Al2231   1.900       .  S
C816        O826   1.261       .  A
C816        O817   1.262       .  A
C816       C1024   1.480       .  S
O817      Al2227   1.910   1_455  S
O818        C820   1.259       .  A
O818      Al2227   1.889   1_455  S
Al819      O2225   1.910       .  S
Al819      O2226   1.889       .  S
Al819       O827   1.889       .  S
Al819       O829   1.912       .  S
Al819       O828   1.783       .  S
C820        O833   1.264       .  A
C820       C1079   1.480       .  S
O821        C831   1.261       .  A
O821       Al823   1.899   1_455  S
O822        C835   1.262       .  A
O822       Al832   1.900       .  S
Al823      O2223   1.900       .  S
Al823      O2244   1.913       .  S
Al823       O833   1.921   1_655  S
Al823      O2236   1.783       .  S
O824        C831   1.263       .  A
O824      Al2240   1.912   1_455  S
O825        C834   1.264       .  A
O825       Al832   1.921       .  S
O826      Al2240   1.900   1_455  S
O827        C834   1.259       .  A
O828      Al2231   1.783       .  S
O828       Al832   1.786       .  S
O829        C830   1.262       .  A
C830       C1068   1.482       .  S
C831        C969   1.481       .  S
Al832      O2232   1.912       .  S
Al832      O2234   1.900       .  S
C834       C1035   1.479       .  S
C835        O836   1.264       .  A
C835        C991   1.481       .  S
O836      Al2231   1.913       .  S
O837        C852   1.259       .  A
O837       Al845   1.896       .  S
C838        O848   1.261       .  A
C838        O839   1.261       .  A
C838        C936   1.481       .  S
O839       Al841   1.906       .  S
O840        C842   1.260       .  A
O840      Al2249   1.886   1_455  S
Al841      O2248   1.886       .  S
Al841       O849   1.887       .  S
Al841      O2259   1.908       .  S
Al841       O850   1.784       .  S
C842        O855   1.265       .  A
C842        C947   1.480       .  S
O843       C2261   1.260       .  A
O843       Al845   1.893       .  S
O844       C2265   1.262       .  A
O844       Al854   1.900       .  S
Al845       O858   1.914       .  S
Al845       O855   1.923       .  S
Al845      O2258   1.786   1_455  S
O846        C853   1.264       .  A
O846       Al854   1.919       .  S
O847        C856   1.266       .  A
O847       Al854   1.929       .  S
O848       Al854   1.905       .  S
O849        C856   1.260       .  A
O850      Al2253   1.786       .  S
O850       Al854   1.786       .  S
O851        C852   1.260       .  A
O851      Al2249   1.908   1_455  S
C852        C892   1.478       .  S
C853       O2251   1.260       .  A
C853       C1288   1.483       .  S
C856        C903   1.482       .  S
C857       O2252   1.262       .  A
C857        O858   1.263   1_655  A
C857       C1310   1.483       .  S
O859        C874   1.265       .  A
O859       Al867   1.921       .  S
C860        O870   1.265       .  A
C860        O861   1.259       .  A
C860        C925   1.480       .  S
O861       Al863   1.886       .  S
O862        C864   1.262       .  A
O862       Al863   1.909       .  S
Al863       O871   1.910       .  S
Al863       O873   1.887       .  S
Al863       O872   1.782       .  S
C864        O877   1.261       .  A
C864        C914   1.482       .  S
O865        C875   1.265       .  A
O865       Al867   1.919       .  S
O866        C879   1.263       .  A
O866       Al876   1.914       .  S
Al867       O880   1.899       .  S
Al867       O877   1.903       .  S
Al867       O872   1.785       .  S
O868        C875   1.261       .  A
O868       Al876   1.893       .  S
O869        C878   1.261       .  A
O869       Al876   1.900       .  S
O870       Al876   1.924       .  S
O871        C878   1.262       .  A
O872       Al876   1.785       .  S
O873        C874   1.259       .  A
C874        C881   1.478       .  S
C875       C1002   1.482       .  S
C878        C958   1.480       .  S
C879        O880   1.261       .  A
C879        C980   1.481       .  S
C881        C882   1.408       .  A
C881        C886   1.406       .  A
C882        C883   1.398       .  A
C882        H895   1.083       .  S
C883        C884   1.399       .  A
C883        H896   1.084       .  S
C884        C885   1.399       .  A
C884        C887   1.437       .  S
C885        C886   1.397       .  A
C885        H897   1.084       .  S
C886        H898   1.083       .  S
C887        C888   1.204       .  T
C888        C889   1.437       .  S
C889        C890   1.400       .  A
C889        C894   1.398       .  A
C890        C891   1.398       .  A
C890        H899   1.083       .  S
C891        C892   1.406       .  A
C891        H900   1.083       .  S
C892        C893   1.408       .  A
C893        C894   1.397       .  A
C893        H901   1.083       .  S
C894        H902   1.084       .  S
C903        C904   1.408       .  A
C903        C908   1.407       .  A
C904        C905   1.398       .  A
C904        H917   1.083       .  S
C905        C906   1.399       .  A
C905        H918   1.084       .  S
C906        C907   1.401       .  A
C906        C909   1.442       .  S
C907        C908   1.400       .  A
C907        H919   1.083       .  S
C908        H920   1.083       .  S
C909        C910   1.207       .  T
C910        C911   1.442       .  S
C911        C912   1.402       .  A
C911        C916   1.398       .  A
C912        C913   1.402       .  A
C912        H921   1.083       .  S
C913        C914   1.407       .  A
C913        H922   1.083       .  S
C914        C915   1.408       .  A
C915        C916   1.397       .  A
C915        H923   1.083       .  S
C916        H924   1.084       .  S
C925        C926   1.407       .  A
C925        C930   1.408       .  A
C926        C927   1.399       .  A
C926        H939   1.083       .  S
C927        C928   1.400       .  A
C927        H940   1.083       .  S
C928        C929   1.399       .  A
C928        C931   1.440       .  S
C929        C930   1.398       .  A
C929        H941   1.084       .  S
C930        H942   1.083       .  S
C932        C933   1.440       .  S
C933        C934   1.401       .  A
C933        C938   1.398       .  A
C934        C935   1.401       .  A
C934        H943   1.083       .  S
C935        C936   1.407       .  A
C935        H944   1.083       .  S
C936        C937   1.408       .  A
C937        C938   1.396       .  A
C937        H945   1.083       .  S
C938        H946   1.084       .  S
C947        C948   1.408       .  A
C947        C952   1.407       .  A
C948        C949   1.397       .  A
C948        H961   1.083       .  S
C949        C950   1.399       .  A
C949        H962   1.084       .  S
C950        C951   1.400       .  A
C950        C953   1.439       .  S
C951        C952   1.398       .  A
C951        H963   1.083       .  S
C952        H964   1.083       .  S
C953        C954   1.205       .  T
C955        C956   1.398       .  A
C955        C960   1.401       .  A
C956        C957   1.396       .  A
C956        H965   1.084       .  S
C957        C958   1.408       .  A
C957        H966   1.083       .  S
C958        C959   1.407       .  A
C959        C960   1.400       .  A
C959        H967   1.083       .  S
C960        H968   1.083       .  S
C969        C970   1.407       .  A
C969        C974   1.408       .  A
C970        C971   1.399       .  A
C970        H983   1.083       .  S
C971        C972   1.400       .  A
C971        H984   1.083       .  S
C972        C973   1.398       .  A
C972        C975   1.439       .  S
C973        C974   1.397       .  A
C973        H985   1.084       .  S
C974        H986   1.083       .  S
C975        C976   1.206       .  T
C976        C977   1.440       .  S
C977        C978   1.400       .  A
C977        C982   1.399       .  A
C978        C979   1.400       .  A
C978        H987   1.083       .  S
C979        C980   1.407       .  A
C979        H988   1.083       .  S
C980        C981   1.408       .  A
C981        C982   1.397       .  A
C981        H989   1.083       .  S
C982        H990   1.084       .  S
C991        C992   1.407       .  A
C991        C996   1.408       .  A
C992        C993   1.400       .  A
C992       H1005   1.083       .  S
C993        C994   1.401       .  A
C993       H1006   1.083       .  S
C994        C995   1.399       .  A
C994        C997   1.441       .  S
C995        C996   1.398       .  A
C995       H1007   1.084       .  S
C996       H1008   1.083       .  S
C997        C998   1.207       .  T
C998        C999   1.441       .  S
C999       C1000   1.400       .  A
C999       C1004   1.399       .  A
C1000      C1001   1.400       .  A
C1000      H1009   1.083       .  S
C1001      C1002   1.408       .  A
C1001      H1010   1.083       .  S
C1002      C1003   1.407       .  A
C1003      C1004   1.398       .  A
C1003      H1011   1.083       .  S
C1004      H1012   1.084       .  S
C1013      C1014   1.408       .  A
C1013      C1018   1.407       .  A
C1014      C1015   1.397       .  A
C1014      H1027   1.083       .  S
C1015      C1016   1.398       .  A
C1015      H1028   1.084       .  S
C1016      C1017   1.400       .  A
C1016      C1019   1.438       .  S
C1017      C1018   1.398       .  A
C1017      H1029   1.083       .  S
C1018      H1030   1.083       .  S
C1019      C1020   1.205       .  T
C1020      C1021   1.438       .  S
C1021      C1022   1.398       .  A
C1021      C1026   1.401       .  A
C1022      C1023   1.396       .  A
C1022      H1031   1.084       .  S
C1023      C1024   1.408       .  A
C1023      H1032   1.083       .  S
C1024      C1025   1.407       .  A
C1025      C1026   1.400       .  A
C1025      H1033   1.083       .  S
C1026      H1034   1.083       .  S
C1035      C1036   1.407       .  A
C1035      C1040   1.407       .  A
C1036      C1037   1.398       .  A
C1036      H1049   1.083       .  S
C1037      C1038   1.399       .  A
C1037      H1050   1.083       .  S
C1038      C1039   1.400       .  A
C1038      C1041   1.439       .  S
C1039      C1040   1.398       .  A
C1039      H1051   1.083       .  S
C1040      H1052   1.083       .  S
C1041      C1042   1.206       .  T
C1042      C1043   1.440       .  S
C1043      C1044   1.398       .  A
C1043      C1048   1.401       .  A
C1044      C1045   1.396       .  A
C1044      H1053   1.084       .  S
C1045      C1046   1.408       .  A
C1045      H1054   1.083       .  S
C1046      C1047   1.407       .  A
C1047      C1048   1.400       .  A
C1047      H1055   1.083       .  S
C1048      H1056   1.083       .  S
C1057      C1058   1.408       .  A
C1057      C1062   1.407       .  A
C1058      C1059   1.400       .  A
C1058      H1071   1.083       .  S
C1059      C1060   1.400       .  A
C1059      H1072   1.083       .  S
C1060      C1061   1.400       .  A
C1060      C1063   1.442       .  S
C1061      C1062   1.399       .  A
C1061      H1073   1.083       .  S
C1062      H1074   1.083       .  S
C1064      C1065   1.442       .  S
C1065      C1066   1.399       .  A
C1065      C1070   1.401       .  A
C1066      C1067   1.397       .  A
C1066      H1075   1.084       .  S
C1067      C1068   1.408       .  A
C1067      H1076   1.083       .  S
C1068      C1069   1.407       .  A
C1069      C1070   1.401       .  A
C1069      H1077   1.083       .  S
C1070      H1078   1.083       .  S
C1079      C1080   1.408       .  A
C1079      C1084   1.407       .  A
C1080      C1081   1.398       .  A
C1080      H1093   1.083       .  S
C1081      C1082   1.399       .  A
C1081      H1094   1.084       .  S
C1082      C1083   1.400       .  A
C1083      C1084   1.398       .  A
C1083      H1095   1.083       .  S
C1084      H1096   1.083       .  S
C1085      C1086   1.205       .  T
C1086      C1087   1.438       .  S
C1087      C1088   1.398       .  A
C1087      C1092   1.401       .  A
C1088      C1089   1.395       .  A
C1088      H1097   1.084       .  S
C1089      C1090   1.407       .  A
C1089      H1098   1.083       .  S
C1090      C1091   1.407       .  A
C1091      C1092   1.400       .  A
C1091      H1099   1.083       .  S
C1092      H1100   1.083       .  S
C1101      C1102   1.408       .  A
C1101      C1106   1.407       .  A
C1102      C1103   1.398       .  A
C1102      H1115   1.083       .  S
C1103      C1104   1.399       .  A
C1103      H1116   1.084       .  S
C1104      C1105   1.400       .  A
C1104      C1107   1.440       .  S
C1105      C1106   1.399       .  A
C1106      H1118   1.083       .  S
C1108      C1109   1.440       .  S
C1109      C1110   1.399       .  A
C1109      C1114   1.400       .  A
C1110      C1111   1.398       .  A
C1110      H1119   1.084       .  S
C1111      C1112   1.408       .  A
C1111      H1120   1.083       .  S
C1112      C1113   1.407       .  A
C1113      C1114   1.399       .  A
C1113      H1121   1.083       .  S
C1123      C1124   1.408       .  A
C1123      C1128   1.407       .  A
C1124      C1125   1.398       .  A
C1124      H1137   1.083       .  S
C1125      C1126   1.399       .  A
C1125      H1138   1.084       .  S
C1126      C1127   1.400       .  A
C1126      C1129   1.441       .  S
C1127      C1128   1.400       .  A
C1127      H1139   1.083       .  S
C1128      H1140   1.083       .  S
C1129      C1130   1.207       .  T
C1130      C1131   1.441       .  S
C1131      C1132   1.399       .  A
C1131      C1136   1.400       .  A
C1132      C1133   1.398       .  A
C1132      H1141   1.084       .  S
C1133      C1134   1.407       .  A
C1133      H1142   1.083       .  S
C1134      C1135   1.407       .  A
C1135      C1136   1.399       .  A
C1135      H1143   1.083       .  S
C1136      H1144   1.083       .  S
C1145      C1146   1.406       .  A
C1145      C1150   1.408       .  A
C1146      C1147   1.400       .  A
C1146      H1159   1.083       .  S
C1147      C1148   1.401       .  A
C1147      H1160   1.083       .  S
C1148      C1149   1.397       .  A
C1148      C1151   1.438       .  S
C1149      C1150   1.395       .  A
C1149      H1161   1.084       .  S
C1150      H1162   1.083       .  S
C1151      C1152   1.205       .  T
C1152      C1153   1.438       .  S
C1153      C1154   1.401       .  A
C1153      C1158   1.397       .  A
C1154      C1155   1.400       .  A
C1154      H1163   1.083       .  S
C1155      C1156   1.406       .  A
C1155      H1164   1.083       .  S
C1156      C1157   1.409       .  A
C1157      C1158   1.395       .  A
C1157      H1165   1.083       .  S
C1158      H1166   1.084       .  S
C1167      C1168   1.407       .  A
C1167      C1172   1.407       .  A
C1168      C1169   1.399       .  A
C1168      H1181   1.083       .  S
C1169      C1170   1.400       .  A
C1169      H1182   1.083       .  S
C1170      C1171   1.399       .  A
C1170      C1173   1.439       .  S
C1171      C1172   1.397       .  A
C1171      H1183   1.084       .  S
C1172      H1184   1.083       .  S
C1173      C1174   1.206       .  T
C1174      C1175   1.439       .  S
C1175      C1176   1.400       .  A
C1175      C1180   1.399       .  A
C1176      C1177   1.398       .  A
C1176      H1185   1.083       .  S
C1177      C1178   1.407       .  A
C1177      H1186   1.083       .  S
C1178      C1179   1.408       .  A
C1179      C1180   1.398       .  A
C1179      H1187   1.083       .  S
C1180      H1188   1.084       .  S
C1189      C1190   1.406       .  A
C1189      C1194   1.408       .  A
C1190      C1191   1.400       .  A
C1190      H1203   1.083       .  S
C1191      C1192   1.401       .  A
C1192      C1193   1.397       .  A
C1192      C1195   1.436       .  S
C1193      C1194   1.394       .  A
C1193      H1205   1.084       .  S
C1194      H1206   1.083       .  S
C1196      C1197   1.436       .  S
C1197      C1198   1.401       .  A
C1197      C1202   1.397       .  A
C1198      C1199   1.400       .  A
C1198      H1207   1.083       .  S
C1199      C1200   1.406       .  A
C1199      H1208   1.083       .  S
C1200      C1201   1.408       .  A
C1201      C1202   1.394       .  A
C1201      H1209   1.083       .  S
C1202      H1210   1.084       .  S
C1211      C1212   1.407       .  A
C1211      C1216   1.407       .  A
C1212      C1213   1.398       .  A
C1212      H1225   1.083       .  S
C1213      C1214   1.399       .  A
C1213      H1226   1.084       .  S
C1214      C1215   1.399       .  A
C1214      C1217   1.438       .  S
C1215      C1216   1.398       .  A
C1215      H1227   1.083       .  S
C1216      H1228   1.083       .  S
C1217      C1218   1.205   1_565  T
C1219      C1220   1.399       .  A
C1219      C1224   1.399       .  A
C1220      C1221   1.398       .  A
C1220      H1229   1.084       .  S
C1221      C1222   1.408       .  A
C1221      H1230   1.083       .  S
C1222      C1223   1.407       .  A
C1223      C1224   1.398       .  A
C1223      H1231   1.083       .  S
C1224      H1232   1.083       .  S
C1233      C1234   1.408       .  A
C1233      C1238   1.408       .  A
C1234      C1235   1.400       .  A
C1234      H1247   1.083       .  S
C1235      C1236   1.400       .  A
C1235      H1248   1.083       .  S
C1236      C1237   1.399       .  A
C1236      C1239   1.441       .  S
C1237      C1238   1.398       .  A
C1237      H1249   1.084       .  S
C1238      H1250   1.083       .  S
C1239      C1240   1.207       .  T
C1240      C1241   1.441       .  S
C1241      C1242   1.400       .  A
C1241      C1246   1.400       .  A
C1242      C1243   1.399       .  A
C1242      H1251   1.084       .  S
C1243      C1244   1.408       .  A
C1243      H1252   1.083       .  S
C1244      C1245   1.408       .  A
C1245      C1246   1.399       .  A
C1245      H1253   1.083       .  S
C1246      H1254   1.083       .  S
C1255      C1256   1.407       .  A
C1255      C1260   1.408       .  A
C1256      C1257   1.398       .  A
C1256      H1269   1.083       .  S
C1257      C1258   1.399       .  A
C1257      H1270   1.084       .  S
C1258      C1259   1.400       .  A
C1258      C1261   1.441       .  S
C1259      C1260   1.400       .  A
C1259      H1271   1.083       .  S
C1260      H1272   1.083       .  S
C1261      C1262   1.207       .  T
C1262      C1263   1.441       .  S
C1263      C1264   1.400       .  A
C1263      C1268   1.400       .  A
C1264      C1265   1.399       .  A
C1264      H1273   1.083       .  S
C1265      C1266   1.407       .  A
C1265      H1274   1.083       .  S
C1266      C1267   1.408       .  A
C1267      C1268   1.399       .  A
C1267      H1275   1.083       .  S
C1268      H1276   1.084       .  S
C1277      C1278   1.408       .  A
C1277      C2690   1.408       .  A
C1278      C1279   1.399       .  A
C1278      H1291   1.083       .  S
C1279      C1280   1.400       .  A
C1279      H1292   1.084       .  S
C1280      C2689   1.401       .  A
C1280      C1283   1.443       .  S
C1281      C2688   1.401       .  A
C1281      C1282   1.401       .  A
C1281      H1293   1.083       .  S
C1282      C2685   1.408       .  A
C1282      H1294   1.083       .  S
C1284      C1285   1.443       .  S
C1285      C2694   1.400       .  A
C1285      C1290   1.400       .  A
C1286      C2693   1.400       .  A
C1286      C1287   1.400       .  A
C1286      H1295   1.083       .  S
C1287      C2696   1.408       .  A
C1287      H1296   1.083       .  S
C1288      C2695   1.408       .  A
C1288      C1289   1.407       .  A
C1289      C1290   1.399       .  A
C1289      H1297   1.083       .  S
C1290      H1298   1.083       .  S
C1299      C2708   1.407       .  A
C1299      C1304   1.408   1_655  A
C1300      C2707   1.407       .  A
C1300      C1301   1.400       .  A
C1300      H1313   1.083       .  S
C1301      C2710   1.400       .  A
C1301      H1314   1.083       .  S
C1302      C2709   1.400       .  A
C1302      C1303   1.399   1_655  A
C1302      C1305   1.442       .  S
C1303      C1304   1.399       .  A
C1303      H1315   1.084       .  S
C1304      H1316   1.083       .  S
C1305      C1306   1.207   1_556  T
C1306      C1307   1.442       .  S
C1307      C1308   1.399   1_655  A
C1307      C2720   1.401       .  A
C1308      C1309   1.398       .  A
C1308      H1317   1.084       .  S
C1309      C1310   1.408   1_455  A
C1309      H1318   1.083       .  S
C1310      C2719   1.408       .  A
C1311      C2718   1.408       .  A
C1311      C1312   1.401       .  A
C1311      H1319   1.083       .  S
C1312      C2715   1.401       .  A
C1312      H1320   1.083       .  S
C1321      C1322   1.405       .  A
C1321      C1326   1.408       .  A
C1322      C1323   1.400       .  A
C1322      H1335   1.083       .  S
C1323      C1324   1.401       .  A
C1323      H1336   1.083       .  S
C1324      C1325   1.397       .  A
C1324      C1327   1.438       .  S
C1325      C1326   1.395       .  A
C1325      H1337   1.084       .  S
C1326      H1338   1.083       .  S
C1327      C1328   1.205       .  T
C1328      C1329   1.437       .  S
C1329      C1330   1.401       .  A
C1329      C1334   1.397       .  A
C1330      C1331   1.400       .  A
C1330      H1339   1.083       .  S
C1331      C1332   1.406       .  A
C1331      H1340   1.083       .  S
C1332      C1333   1.408       .  A
C1333      C1334   1.395       .  A
C1333      H1341   1.083       .  S
C1334      H1342   1.084       .  S
C1343      C1344   1.408       .  A
C1343      C1348   1.407       .  A
C1344      C1345   1.398       .  A
C1344      H1357   1.083       .  S
C1345      C1346   1.399       .  A
C1345      H1358   1.084       .  S
C1346      C1347   1.400       .  A
C1346      C1349   1.439       .  S
C1347      C1348   1.398       .  A
C1347      H1359   1.083       .  S
C1348      H1360   1.083       .  S
C1349      C1350   1.206       .  T
C1350      C1351   1.439       .  S
C1351      C1352   1.400       .  A
C1351      C1356   1.399       .  A
C1352      C1353   1.399       .  A
C1352      H1361   1.083       .  S
C1353      C1354   1.407       .  A
C1353      H1362   1.083       .  S
C1354      C1355   1.408       .  A
C1355      C1356   1.398       .  A
C1355      H1363   1.083       .  S
C1356      H1364   1.084       .  S
C1365      C1366   1.407       .  A
C1365      C1370   1.408       .  A
C1366      C1367   1.401       .  A
C1366      H1379   1.083       .  S
C1367      C1368   1.402       .  A
C1368      C1369   1.397       .  A
C1368      C1371   1.439       .  S
C1369      C1370   1.395       .  A
C1369      H1381   1.084       .  S
C1370      H1382   1.083       .  S
C1372      C1373   1.439       .  S
C1373      C1374   1.402       .  A
C1373      C1378   1.397       .  A
C1374      C1375   1.401       .  A
C1375      C1376   1.406       .  A
C1375      H1384   1.083       .  S
C1376      C1377   1.408       .  A
C1377      C1378   1.395       .  A
C1377      H1385   1.083       .  S
C1378      H1386   1.084       .  S
C1387      C1388   1.407       .  A
C1387      C1392   1.408       .  A
C1388      C1389   1.398       .  A
C1388      H1401   1.083       .  S
C1389      C1390   1.399       .  A
C1390      C1391   1.399       .  A
C1390      C1393   1.438       .  S
C1391      C1392   1.398       .  A
C1391      H1403   1.084       .  S
C1392      H1404   1.083       .  S
C1394      C1395   1.438       .  S
C1395      C1396   1.399       .  A
C1395      C1400   1.400       .  A
C1396      C1397   1.398       .  A
C1396      H1405   1.084       .  S
C1397      C1398   1.407       .  A
C1397      H1406   1.083       .  S
C1398      C1399   1.407       .  A
C1399      C1400   1.398       .  A
C1399      H1407   1.083       .  S
C1400      H1408   1.083       .  S
O1409      C1424   1.261       .  A
O1409     Al1417   1.905       .  S
C1410      O1420   1.261       .  A
C1410      O1411   1.260       .  A
C1410      C2025   1.477       .  S
O1411     Al1413   1.899       .  S
O1412      C1414   1.259       .  A
Al1413     O1421   1.888       .  S
Al1413     O1422   1.785       .  S
C1414      O1427   1.265       .  A
C1414      C2058   1.481       .  S
O1415     Al1417   1.899       .  S
O1416     Al1426   1.897       .  S
Al1417     O1430   1.916       .  S
Al1417     O1427   1.924       .  S
O1418      C1425   1.263       .  A
O1418     Al1426   1.913       .  S
O1419      C1428   1.264       .  A
O1419     Al1426   1.918       .  S
O1420     Al1426   1.904       .  S
O1421      C1428   1.260       .  A
O1422     Al1426   1.788       .  S
O1423      C1424   1.260       .  A
C1424      C2069   1.480       .  S
C1425      C2003   1.483       .  S
C1428      C2102   1.479       .  S
C1429      O1430   1.264   1_455  A
C1429      C1981   1.483       .  S
O1431      C1446   1.260       .  A
O1431     Al1439   1.901       .  S
C1432      O1442   1.260       .  A
C1432      O1433   1.260       .  A
C1432      C2080   1.478       .  S
O1433     Al1435   1.900       .  S
O1434      C1436   1.260       .  A
O1434     Al1435   1.887       .  S
Al1435     O1443   1.887       .  S
Al1435     O1445   1.904       .  S
Al1435     O1444   1.784       .  S
C1436      O1449   1.266       .  A
C1436      C2047   1.480       .  S
O1437      C1447   1.261       .  A
O1437     Al1439   1.894       .  S
O1438      C1451   1.260       .  A
O1438     Al1448   1.893       .  S
Al1439     O1452   1.918       .  S
Al1439     O1449   1.926       .  S
Al1439     O1444   1.786       .  S
O1440      C1447   1.264       .  A
O1440     Al1448   1.916       .  S
O1441      C1450   1.266       .  A
O1441     Al1448   1.923       .  S
O1442     Al1448   1.903       .  S
O1443      C1450   1.260       .  A
O1444     Al1448   1.786       .  S
O1445      C1446   1.260       .  A
C1446      C2036   1.479       .  S
C1447      C1959   1.482       .  S
C1450      C2091   1.480       .  S
C1451      O1452   1.263       .  A
C1451      C1948   1.483       .  S
O1453      C1468   1.261       .  A
O1453     Al1461   1.903       .  S
C1454      O1464   1.261       .  A
C1454      O1455   1.259       .  A
C1454      C1860   1.479       .  S
O1455     Al1457   1.898       .  S
O1456      C1458   1.261       .  A
O1456     Al1457   1.893       .  S
Al1457     O1465   1.890       .  S
Al1457     O1467   1.901       .  S
Al1457     O1466   1.785       .  S
C1458      O1471   1.264       .  A
C1458      C1871   1.480       .  S
O1459      C1469   1.261       .  A
O1459     Al1461   1.897       .  S
O1460      C1473   1.260       .  A
O1460     Al1470   1.897       .  S
Al1461     O1474   1.909       .  S
Al1461     O1471   1.918       .  S
Al1461     O1466   1.786       .  S
O1462      C1469   1.263       .  A
O1462     Al1470   1.912       .  S
O1463      C1472   1.265       .  A
O1463     Al1470   1.918       .  S
O1464     Al1470   1.904       .  S
O1465      C1472   1.261       .  A
O1466     Al1470   1.785       .  S
O1467      C1468   1.260       .  A
C1468      C1904   1.478       .  S
C1469      C1827   1.482       .  S
C1472      C1915   1.479       .  S
C1473      O1474   1.262       .  A
C1473      C1805   1.481       .  S
O1475      C1490   1.261       .  A
C1476      O1486   1.261       .  A
C1476      O1477   1.260       .  A
C1476      C1893   1.477       .  S
O1478      C1480   1.260       .  A
Al1479     O1487   1.888       .  S
Al1479     O1489   1.904       .  S
C1480      O1493   1.266       .  A
C1480      C1882   1.480       .  S
O1481      C1491   1.261       .  A
O1481     Al1483   1.893       .  S
O1482      C1495   1.260       .  A
O1482     Al1492   1.895       .  S
Al1483     O1493   1.926       .  S
Al1483     O1488   1.783   1_655  S
O1484      C1491   1.264       .  A
O1485      C1494   1.265       .  A
O1485     Al1492   1.922       .  S
O1487      C1494   1.260       .  A
O1489      C1490   1.260       .  A
C1490      C1849   1.479       .  S
C1491      C1970   1.482       .  S
C1494      C1926   1.479       .  S
C1495      O1496   1.264       .  A
C1495      C1937   1.482       .  S
O1497      C1512   1.265       .  A
O1497     Al1505   1.926       .  S
C1498      O1508   1.264       .  A
C1498      O1499   1.259       .  A
C1498      C1717   1.479       .  S
O1499     Al1501   1.887       .  S
O1500      C1502   1.263       .  A
O1500     Al1501   1.912       .  S
Al1501     O1509   1.908       .  S
Al1501     O1511   1.893       .  S
Al1501     O1510   1.782       .  S
C1502      O1515   1.261       .  A
C1502      C1750   1.481       .  S
O1503      C1513   1.263       .  A
O1503     Al1505   1.917       .  S
O1504      C1517   1.264       .  A
O1504     Al1514   1.914       .  S
Al1505     O1518   1.896       .  S
Al1505     O1515   1.900       .  S
Al1505     O1510   1.785       .  S
O1506      C1513   1.260       .  A
O1506     Al1514   1.894       .  S
O1507      C1516   1.259       .  A
O1507     Al1514   1.896       .  S
O1508     Al1514   1.921       .  S
O1509      C1516   1.261       .  A
O1510     Al1514   1.786       .  S
O1511      C1512   1.260       .  A
C1512      C1761   1.483       .  S
C1513      C1838   1.481       .  S
C1516      C1794   1.479       .  S
C1517      O1518   1.262       .  A
C1517      C1816   1.480       .  S
O1519      C1534   1.261       .  A
C1520      O1530   1.261       .  A
C1520      O1521   1.262       .  A
C1520      C1728   1.480       .  S
O1522      C1524   1.259       .  A
Al1523     O1531   1.889       .  S
Al1523     O1533   1.912       .  S
Al1523     O1532   1.783       .  S
C1524      O1537   1.264       .  A
C1524      C1783   1.480       .  S
O1525      C1535   1.261       .  A
O1525     Al1527   1.899       .  S
O1526      C1539   1.262       .  A
O1526     Al1536   1.900       .  S
Al1527     O1537   1.921       .  S
O1528      C1535   1.263       .  A
O1529      C1538   1.264       .  A
O1529     Al1536   1.921       .  S
O1531      C1538   1.259       .  A
O1532     Al1536   1.786       .  S
O1533      C1534   1.262       .  A
C1534      C1772   1.482       .  S
C1535      C1673   1.481       .  S
C1538      C1739   1.479       .  S
C1539      O1540   1.264       .  A
C1539      C1695   1.481       .  S
O1541      C1556   1.259       .  A
O1541     Al1549   1.896       .  S
C1542      O1552   1.261       .  A
C1542      O1543   1.261       .  A
C1542      C1640   1.481       .  S
O1543     Al1545   1.906       .  S
O1544      C1546   1.260       .  A
Al1545     O1553   1.887       .  S
Al1545     O1554   1.784       .  S
C1546      O1559   1.265       .  A
C1546      C1651   1.480       .  S
O1547     Al1549   1.893       .  S
O1548     Al1558   1.900       .  S
Al1549     O1562   1.914       .  S
Al1549     O1559   1.923       .  S
O1550      C1557   1.264   1_655  A
O1550     Al1558   1.919       .  S
O1551      C1560   1.266       .  A
O1551     Al1558   1.929       .  S
O1552     Al1558   1.905       .  S
O1553      C1560   1.260       .  A
O1554     Al1558   1.786       .  S
O1555      C1556   1.260       .  A
C1556      C1596   1.478       .  S
C1557      C1992   1.483       .  S
C1560      C1607   1.482       .  S
C1561      O1562   1.263       .  A
C1561      C2014   1.483       .  S
O1563      C1578   1.265       .  A
O1563     Al1571   1.921       .  S
C1564      O1574   1.265       .  A
C1564      O1565   1.259       .  A
C1564      C1629   1.480       .  S
O1565     Al1567   1.886       .  S
O1566      C1568   1.262       .  A
O1566     Al1567   1.909       .  S
Al1567     O1575   1.910       .  S
Al1567     O1577   1.887       .  S
Al1567     O1576   1.782       .  S
C1568      O1581   1.261       .  A
C1568      C1618   1.482       .  S
O1569      C1579   1.265       .  A
O1569     Al1571   1.919       .  S
O1570      C1583   1.263       .  A
O1570     Al1580   1.914       .  S
Al1571     O1584   1.899       .  S
Al1571     O1581   1.903       .  S
Al1571     O1576   1.785       .  S
O1572      C1579   1.261       .  A
O1572     Al1580   1.893       .  S
O1573      C1582   1.261       .  A
O1573     Al1580   1.900       .  S
O1574     Al1580   1.924       .  S
O1575      C1582   1.262       .  A
O1576     Al1580   1.785       .  S
O1577      C1578   1.259       .  A
C1578      C1585   1.478       .  S
C1579      C1706   1.482       .  S
C1582      C1662   1.480       .  S
C1583      O1584   1.261       .  A
C1583      C1684   1.481       .  S
C1585      C1586   1.408       .  A
C1585      C1590   1.406       .  A
C1586      C1587   1.398       .  A
C1586      H1599   1.083       .  S
C1587      C1588   1.399       .  A
C1587      H1600   1.084       .  S
C1588      C1589   1.399       .  A
C1588      C1591   1.437       .  S
C1589      C1590   1.397       .  A
C1589      H1601   1.084       .  S
C1590      H1602   1.083       .  S
C1591      C1592   1.204       .  T
C1592      C1593   1.437       .  S
C1593      C1594   1.400       .  A
C1593      C1598   1.398       .  A
C1594      C1595   1.398       .  A
C1594      H1603   1.083       .  S
C1595      C1596   1.406       .  A
C1595      H1604   1.083       .  S
C1596      C1597   1.408       .  A
C1597      C1598   1.397       .  A
C1597      H1605   1.083       .  S
C1598      H1606   1.084       .  S
C1607      C1608   1.408       .  A
C1607      C1612   1.407       .  A
C1608      C1609   1.398       .  A
C1608      H1621   1.083       .  S
C1609      C1610   1.399       .  A
C1609      H1622   1.084       .  S
C1610      C1611   1.401       .  A
C1610      C1613   1.442       .  S
C1611      C1612   1.400       .  A
C1611      H1623   1.083       .  S
C1612      H1624   1.083       .  S
C1613      C1614   1.207       .  T
C1614      C1615   1.442       .  S
C1615      C1616   1.402       .  A
C1615      C1620   1.398       .  A
C1616      C1617   1.402       .  A
C1616      H1625   1.083       .  S
C1617      C1618   1.407       .  A
C1617      H1626   1.083       .  S
C1618      C1619   1.408       .  A
C1619      C1620   1.397       .  A
C1619      H1627   1.083       .  S
C1620      H1628   1.084       .  S
C1629      C1630   1.407       .  A
C1629      C1634   1.408       .  A
C1630      C1631   1.399       .  A
C1630      H1643   1.083       .  S
C1631      C1632   1.400       .  A
C1631      H1644   1.083       .  S
C1632      C1633   1.399       .  A
C1632      C1635   1.440       .  S
C1633      C1634   1.398       .  A
C1633      H1645   1.084       .  S
C1634      H1646   1.083       .  S
C1635      C2340   1.206       .  T
C1636      C1637   1.440       .  S
C1636      C2339   1.206   1_545  T
C1637      C1638   1.401       .  A
C1637      C1642   1.398       .  A
C1638      C1639   1.401       .  A
C1638      H1647   1.083       .  S
C1639      C1640   1.407       .  A
C1639      H1648   1.083       .  S
C1640      C1641   1.408       .  A
C1641      C1642   1.396       .  A
C1641      H1649   1.083       .  S
C1642      H1650   1.084       .  S
C1651      C1652   1.408       .  A
C1651      C1656   1.407       .  A
C1652      C1653   1.397       .  A
C1652      H1665   1.083       .  S
C1653      C1654   1.399       .  A
C1653      H1666   1.084       .  S
C1654      C1655   1.400       .  A
C1654      C1657   1.439       .  S
C1655      C1656   1.398       .  A
C1655      H1667   1.083       .  S
C1656      H1668   1.083       .  S
C1657      C1658   1.205   1_545  T
C1658      C2363   1.439       .  S
C1659      C1660   1.398       .  A
C1659      C1664   1.401       .  A
C1659      C2362   1.439       .  S
C1660      C1661   1.396       .  A
C1660      H1669   1.084       .  S
C1661      C1662   1.408       .  A
C1661      H1670   1.083       .  S
C1662      C1663   1.407       .  A
C1663      C1664   1.400       .  A
C1663      H1671   1.083       .  S
C1664      H1672   1.083       .  S
C1673      C1674   1.407       .  A
C1673      C1678   1.408       .  A
C1674      C1675   1.399       .  A
C1674      H1687   1.083       .  S
C1675      C1676   1.400       .  A
C1675      H1688   1.083       .  S
C1676      C1677   1.398       .  A
C1676      C1679   1.439       .  S
C1677      C1678   1.397       .  A
C1677      H1689   1.084       .  S
C1678      H1690   1.083       .  S
C1679      C1680   1.206       .  T
C1680      C1681   1.440       .  S
C1681      C1682   1.400       .  A
C1681      C1686   1.399       .  A
C1682      C1683   1.400       .  A
C1682      H1691   1.083       .  S
C1683      C1684   1.407       .  A
C1683      H1692   1.083       .  S
C1684      C1685   1.408       .  A
C1685      C1686   1.397       .  A
C1685      H1693   1.083       .  S
C1686      H1694   1.084       .  S
C1695      C1696   1.407       .  A
C1695      C1700   1.408       .  A
C1696      C1697   1.400       .  A
C1696      H1709   1.083       .  S
C1697      C1698   1.401       .  A
C1697      H1710   1.083       .  S
C1698      C1699   1.399       .  A
C1698      C1701   1.441       .  S
C1699      C1700   1.398       .  A
C1699      H1711   1.084       .  S
C1700      H1712   1.083       .  S
C1701      C1702   1.207       .  T
C1702      C1703   1.441       .  S
C1703      C1704   1.400       .  A
C1703      C1708   1.399       .  A
C1704      C1705   1.400       .  A
C1704      H1713   1.083       .  S
C1705      C1706   1.408       .  A
C1705      H1714   1.083       .  S
C1706      C1707   1.407       .  A
C1707      C1708   1.398       .  A
C1707      H1715   1.083       .  S
C1708      H1716   1.084       .  S
C1717      C1718   1.408       .  A
C1717      C1722   1.407       .  A
C1718      C1719   1.397       .  A
C1718      H1731   1.083       .  S
C1719      C1720   1.398       .  A
C1719      H1732   1.084       .  S
C1720      C1721   1.400       .  A
C1720      C1723   1.438       .  S
C1721      C1722   1.398       .  A
C1721      H1733   1.083       .  S
C1722      H1734   1.083       .  S
C1723      C1724   1.205       .  T
C1724      C1725   1.438       .  S
C1725      C1726   1.398       .  A
C1725      C1730   1.401       .  A
C1726      C1727   1.396       .  A
C1726      H1735   1.084       .  S
C1727      C1728   1.408       .  A
C1727      H1736   1.083       .  S
C1728      C1729   1.407       .  A
C1729      C1730   1.400       .  A
C1729      H1737   1.083       .  S
C1730      H1738   1.083       .  S
C1739      C1740   1.407       .  A
C1739      C1744   1.407       .  A
C1740      C1741   1.398       .  A
C1740      H1753   1.083       .  S
C1741      C1742   1.399       .  A
C1741      H1754   1.083       .  S
C1742      C1743   1.400       .  A
C1742      C1745   1.439       .  S
C1743      C1744   1.398       .  A
C1743      H1755   1.083       .  S
C1744      H1756   1.083       .  S
C1745      C1746   1.206       .  T
C1746      C1747   1.440       .  S
C1747      C1748   1.398       .  A
C1747      C1752   1.401       .  A
C1748      C1749   1.396       .  A
C1748      H1757   1.084       .  S
C1749      C1750   1.408       .  A
C1749      H1758   1.083       .  S
C1750      C1751   1.407       .  A
C1751      C1752   1.400       .  A
C1751      H1759   1.083       .  S
C1752      H1760   1.083       .  S
C1761      C1762   1.408       .  A
C1761      C1766   1.407       .  A
C1762      C1763   1.400       .  A
C1762      H1775   1.083       .  S
C1763      C1764   1.400       .  A
C1763      H1776   1.083       .  S
C1764      C1765   1.400       .  A
C1764      C1767   1.442       .  S
C1765      C1766   1.399       .  A
C1765      H1777   1.083       .  S
C1766      H1778   1.083       .  S
C1767      C2472   1.208   1_545  T
C1768      C1769   1.442       .  S
C1768      C2471   1.208       .  T
C1769      C1770   1.399       .  A
C1769      C1774   1.401       .  A
C1770      C1771   1.397       .  A
C1770      H1779   1.084       .  S
C1771      C1772   1.408       .  A
C1771      H1780   1.083       .  S
C1772      C1773   1.407       .  A
C1773      C1774   1.401       .  A
C1773      H1781   1.083       .  S
C1774      H1782   1.083       .  S
C1783      C1784   1.408       .  A
C1783      C1788   1.407       .  A
C1784      C1785   1.398       .  A
C1784      H1797   1.083       .  S
C1785      C1786   1.399       .  A
C1785      H1798   1.084       .  S
C1786      C1787   1.400       .  A
C1786      C2493   1.439       .  S
C1787      C1788   1.398       .  A
C1787      H1799   1.083       .  S
C1788      H1800   1.083       .  S
C1789      C2490   1.439       .  S
C1789      C1790   1.205   1_565  T
C1790      C1791   1.438       .  S
C1791      C1792   1.398       .  A
C1791      C1796   1.401       .  A
C1792      C1793   1.395       .  A
C1792      H1801   1.084       .  S
C1793      C1794   1.407       .  A
C1793      H1802   1.083       .  S
C1794      C1795   1.407       .  A
C1795      C1796   1.400       .  A
C1795      H1803   1.083       .  S
C1796      H1804   1.083       .  S
C1805      C1806   1.408       .  A
C1805      C1810   1.407       .  A
C1806      C1807   1.398       .  A
C1806      H1819   1.083       .  S
C1807      C1808   1.399       .  A
C1807      H1820   1.084       .  S
C1808      C1809   1.400       .  A
C1808      C1811   1.440       .  S
C1809      C1810   1.399       .  A
C1809      H2525   1.083       .  S
C1810      H1822   1.083       .  S
C1811      C2516   1.206       .  T
C1812      C1813   1.440       .  S
C1812      C2515   1.206   1_545  T
C1813      C1814   1.399       .  A
C1813      C1818   1.400       .  A
C1814      C1815   1.398       .  A
C1814      H1823   1.084       .  S
C1815      C1816   1.408       .  A
C1815      H1824   1.083       .  S
C1816      C1817   1.407       .  A
C1817      C1818   1.399       .  A
C1817      H1825   1.083       .  S
C1818      H2530   1.083       .  S
H1821      C2513   1.083       .  S
H1826      C2522   1.083       .  S
C1827      C1828   1.408       .  A
C1827      C1832   1.407       .  A
C1828      C1829   1.398       .  A
C1828      H1841   1.083       .  S
C1829      C1830   1.399       .  A
C1829      H1842   1.084       .  S
C1830      C1831   1.400       .  A
C1830      C1833   1.441       .  S
C1831      C1832   1.400       .  A
C1831      H1843   1.083       .  S
C1832      H1844   1.083       .  S
C1833      C1834   1.207       .  T
C1834      C1835   1.441       .  S
C1835      C1836   1.399       .  A
C1835      C1840   1.400       .  A
C1836      C1837   1.398       .  A
C1836      H1845   1.084       .  S
C1837      C1838   1.407       .  A
C1837      H1846   1.083       .  S
C1838      C1839   1.407       .  A
C1839      C1840   1.399       .  A
C1839      H1847   1.083       .  S
C1840      H1848   1.083       .  S
C1849      C1850   1.406       .  A
C1849      C1854   1.408       .  A
C1850      C1851   1.400       .  A
C1850      H1863   1.083       .  S
C1851      C1852   1.401       .  A
C1851      H1864   1.083       .  S
C1852      C1853   1.397       .  A
C1852      C1855   1.438       .  S
C1853      C1854   1.395       .  A
C1853      H1865   1.084       .  S
C1854      H1866   1.083       .  S
C1855      C1856   1.205       .  T
C1856      C1857   1.438       .  S
C1857      C1858   1.401       .  A
C1857      C1862   1.397       .  A
C1858      C1859   1.400       .  A
C1858      H1867   1.083       .  S
C1859      C1860   1.406       .  A
C1859      H1868   1.083       .  S
C1860      C1861   1.409       .  A
C1861      C1862   1.395       .  A
C1861      H1869   1.083       .  S
C1862      H1870   1.084       .  S
C1871      C1872   1.407       .  A
C1871      C1876   1.407       .  A
C1872      C1873   1.399       .  A
C1872      H1885   1.083       .  S
C1873      C1874   1.400       .  A
C1873      H1886   1.083       .  S
C1874      C1875   1.399       .  A
C1874      C1877   1.439       .  S
C1875      C1876   1.397       .  A
C1875      H1887   1.083       .  S
C1876      H1888   1.083       .  S
C1877      C1878   1.206       .  T
C1878      C1879   1.439       .  S
C1879      C1880   1.400       .  A
C1879      C1884   1.399       .  A
C1880      C1881   1.398       .  A
C1880      H1889   1.083       .  S
C1881      C1882   1.407       .  A
C1881      H1890   1.083       .  S
C1882      C1883   1.408       .  A
C1883      C1884   1.398       .  A
C1883      H1891   1.083       .  S
C1884      H1892   1.084       .  S
C1893      C1894   1.406       .  A
C1893      C1898   1.408       .  A
C1894      C1895   1.400       .  A
C1894      H1907   1.083       .  S
C1895      C1896   1.401       .  A
C1895      H2612   1.083       .  S
C1896      C1897   1.397       .  A
C1896      C1899   1.436       .  S
C1897      C1898   1.394       .  A
C1897      H1909   1.084       .  S
C1898      H1910   1.083       .  S
C1899      C2604   1.204   1_545  T
C1900      C1901   1.436       .  S
C1900      C2603   1.204       .  T
C1901      C1902   1.401       .  A
C1901      C1906   1.397       .  A
C1902      C1903   1.400       .  A
C1902      H1911   1.083       .  S
C1903      C1904   1.406       .  A
C1903      H1912   1.083       .  S
C1904      C1905   1.408       .  A
C1905      C1906   1.394       .  A
C1905      H1913   1.083       .  S
C1906      H1914   1.084       .  S
H1908      C2599   1.083       .  S
C1915      C1916   1.407       .  A
C1915      C1920   1.407       .  A
C1916      C1917   1.398       .  A
C1916      H1929   1.083       .  S
C1917      C1918   1.399       .  A
C1917      H1930   1.084       .  S
C1918      C1919   1.399       .  A
C1918      C1921   1.438       .  S
C1919      C1920   1.398       .  A
C1919      H1931   1.083       .  S
C1920      H1932   1.083       .  S
C1921      C1922   1.205       .  T
C1922      C2627   1.438       .  S
C1923      C1924   1.399       .  A
C1923      C1928   1.399       .  A
C1923      C2626   1.438       .  S
C1924      C1925   1.398       .  A
C1924      H1933   1.084       .  S
C1925      C1926   1.408       .  A
C1925      H1934   1.083       .  S
C1926      C1927   1.407       .  A
C1927      C1928   1.398       .  A
C1927      H1935   1.083       .  S
C1928      H1936   1.083       .  S
C1937      C1938   1.408       .  A
C1937      C1942   1.408       .  A
C1938      C1939   1.400       .  A
C1938      H1951   1.083       .  S
C1939      C1940   1.400       .  A
C1939      H1952   1.083       .  S
C1940      C1941   1.399       .  A
C1940      C1943   1.441       .  S
C1941      C1942   1.398       .  A
C1941      H1953   1.084       .  S
C1942      H1954   1.083       .  S
C1943      C1944   1.207       .  T
C1944      C1945   1.441       .  S
C1945      C1946   1.400       .  A
C1945      C1950   1.400       .  A
C1946      C1947   1.399       .  A
C1946      H1955   1.084       .  S
C1947      C1948   1.408       .  A
C1947      H1956   1.083       .  S
C1948      C1949   1.408       .  A
C1949      C1950   1.399       .  A
C1949      H1957   1.083       .  S
C1950      H1958   1.083       .  S
C1959      C1960   1.407       .  A
C1959      C1964   1.408       .  A
C1960      C1961   1.398       .  A
C1960      H1973   1.083       .  S
C1961      C1962   1.399       .  A
C1961      H1974   1.084       .  S
C1962      C1963   1.400       .  A
C1962      C1965   1.441       .  S
C1963      C1964   1.400       .  A
C1963      H1975   1.083       .  S
C1964      H1976   1.083       .  S
C1965      C1966   1.207       .  T
C1966      C1967   1.441       .  S
C1967      C1968   1.400       .  A
C1967      C1972   1.400       .  A
C1968      C1969   1.399       .  A
C1968      H1977   1.083       .  S
C1969      C1970   1.407       .  A
C1969      H1978   1.083       .  S
C1970      C1971   1.408       .  A
C1971      C1972   1.399       .  A
C1971      H1979   1.083       .  S
C1972      H1980   1.084       .  S
C1981      C1982   1.408   1_455  A
C1982      C1983   1.399       .  A
C1982      H1995   1.083       .  S
C1983      C1984   1.400   1_655  A
C1983      H1996   1.084       .  S
C1984      C1987   1.443       .  S
C1985      C1986   1.401       .  A
C1985      H1997   1.083       .  S
C1986      H1998   1.083       .  S
C1987      C2692   1.208   1_556  T
C1988      C1989   1.443       .  S
C1988      C2691   1.208   1_544  T
C1989      C1994   1.400   1_455  A
C1990      C1991   1.400       .  A
C1990      H1999   1.083       .  S
C1991      H2000   1.083       .  S
C1992      C1993   1.407   1_455  A
C1993      C1994   1.399       .  A
C1993      H2001   1.083       .  S
C1994      H2002   1.083       .  S
C2003      C2008   1.408       .  A
C2004      C2005   1.400       .  A
C2004      H2017   1.083       .  S
C2005      H2018   1.083       .  S
C2006      C2007   1.399       .  A
C2006      C2009   1.442       .  S
C2007      C2008   1.399       .  A
C2007      H2019   1.084       .  S
C2008      H2020   1.083       .  S
C2009      C2010   1.207   1_556  T
C2010      C2011   1.442       .  S
C2011      C2012   1.399       .  A
C2012      C2013   1.398       .  A
C2012      H2021   1.084       .  S
C2013      C2014   1.408       .  A
C2013      H2022   1.083       .  S
C2015      C2016   1.401       .  A
C2015      H2023   1.083       .  S
C2016      H2024   1.083       .  S
C2025      C2026   1.405       .  A
C2025      C2030   1.408       .  A
C2026      C2027   1.400       .  A
C2026      H2039   1.083       .  S
C2027      C2028   1.401       .  A
C2027      H2040   1.083       .  S
C2028      C2029   1.397       .  A
C2028      C2031   1.438       .  S
C2029      C2030   1.395       .  A
C2029      H2041   1.084       .  S
C2030      H2042   1.083       .  S
C2031      C2032   1.205       .  T
C2032      C2033   1.437       .  S
C2033      C2034   1.401       .  A
C2033      C2038   1.397       .  A
C2034      C2035   1.400       .  A
C2034      H2043   1.083       .  S
C2035      C2036   1.406       .  A
C2035      H2044   1.083       .  S
C2036      C2037   1.408       .  A
C2037      C2038   1.395       .  A
C2037      H2045   1.083       .  S
C2038      H2046   1.084       .  S
C2047      C2048   1.408       .  A
C2047      C2052   1.407       .  A
C2048      C2049   1.398       .  A
C2048      H2061   1.083       .  S
C2049      C2050   1.399       .  A
C2049      H2062   1.084       .  S
C2050      C2051   1.400       .  A
C2050      C2053   1.439       .  S
C2051      C2052   1.398       .  A
C2051      H2063   1.083       .  S
C2052      H2064   1.083       .  S
C2053      C2054   1.206       .  T
C2054      C2055   1.439       .  S
C2055      C2056   1.400       .  A
C2055      C2060   1.399       .  A
C2056      C2057   1.399       .  A
C2056      H2065   1.083       .  S
C2057      C2058   1.407       .  A
C2057      H2066   1.083       .  S
C2058      C2059   1.408       .  A
C2059      C2060   1.398       .  A
C2059      H2067   1.083       .  S
C2060      H2068   1.084       .  S
C2069      C2070   1.407       .  A
C2069      C2074   1.408       .  A
C2070      C2071   1.401       .  A
C2070      H2083   1.083       .  S
C2071      C2072   1.402       .  A
C2071      H2788   1.083       .  S
C2072      C2073   1.397       .  A
C2072      C2075   1.439       .  S
C2073      C2074   1.395       .  A
C2073      H2085   1.084       .  S
C2074      H2086   1.083       .  S
C2075      C2780   1.205       .  T
C2076      C2077   1.439       .  S
C2076      C2779   1.205   1_545  T
C2077      C2078   1.402       .  A
C2077      C2082   1.397       .  A
C2078      C2079   1.401       .  A
C2078      H2791   1.083       .  S
C2079      C2080   1.406       .  A
C2079      H2088   1.083       .  S
C2080      C2081   1.408       .  A
C2081      C2082   1.395       .  A
C2081      H2089   1.083       .  S
C2082      H2090   1.084       .  S
H2084      C2775   1.083       .  S
H2087      C2782   1.083       .  S
C2091      C2092   1.407       .  A
C2091      C2096   1.408       .  A
C2092      C2093   1.398       .  A
C2092      H2105   1.083       .  S
C2093      C2094   1.399       .  A
C2093      H2810   1.083       .  S
C2094      C2095   1.399       .  A
C2094      C2097   1.438       .  S
C2095      C2096   1.398       .  A
C2095      H2107   1.084       .  S
C2096      H2108   1.083       .  S
C2097      C2802   1.205   1_545  T
C2098      C2099   1.438       .  S
C2098      C2801   1.205       .  T
C2099      C2100   1.399       .  A
C2099      C2104   1.400       .  A
C2100      C2101   1.398       .  A
C2100      H2109   1.084       .  S
C2101      C2102   1.407       .  A
C2101      H2110   1.083       .  S
C2102      C2103   1.407       .  A
C2103      C2104   1.398       .  A
C2103      H2111   1.083       .  S
C2104      H2112   1.083       .  S
H2106      C2797   1.083       .  S
O2113      C2128   1.261       .  A
O2113     Al2121   1.905       .  S
C2114      O2124   1.261       .  A
C2114      O2115   1.260       .  A
C2114      C2729   1.477       .  S
O2115     Al2117   1.899       .  S
O2116      C2118   1.259       .  A
Al2117     O2125   1.888       .  S
Al2117     O2126   1.785       .  S
C2118      O2131   1.265       .  A
C2118      C2762   1.481       .  S
O2119     Al2121   1.899       .  S
O2120     Al2130   1.897       .  S
Al2121     O2134   1.916       .  S
Al2121     O2131   1.924       .  S
O2122      C2129   1.263       .  A
O2122     Al2130   1.913       .  S
O2123      C2132   1.264       .  A
O2123     Al2130   1.918       .  S
O2124     Al2130   1.904       .  S
O2125      C2132   1.260       .  A
O2126     Al2130   1.788       .  S
O2127      C2128   1.260       .  A
C2128      C2773   1.480       .  S
C2129      C2707   1.483       .  S
C2132      C2806   1.479       .  S
C2133      O2134   1.264   1_455  A
C2133      C2685   1.483       .  S
O2135      C2150   1.260       .  A
O2135     Al2143   1.901       .  S
C2136      O2146   1.260       .  A
C2136      O2137   1.260       .  A
C2136      C2784   1.478       .  S
O2137     Al2139   1.900       .  S
O2138      C2140   1.260       .  A
O2138     Al2139   1.887       .  S
Al2139     O2147   1.887       .  S
Al2139     O2149   1.904       .  S
Al2139     O2148   1.784       .  S
C2140      O2153   1.266       .  A
C2140      C2751   1.480       .  S
O2141      C2151   1.261       .  A
O2141     Al2143   1.894       .  S
O2142      C2155   1.260       .  A
O2142     Al2152   1.893       .  S
Al2143     O2156   1.918       .  S
Al2143     O2153   1.926       .  S
Al2143     O2148   1.786       .  S
O2144      C2151   1.264       .  A
O2144     Al2152   1.916       .  S
O2145      C2154   1.266       .  A
O2145     Al2152   1.923       .  S
O2146     Al2152   1.903       .  S
O2147      C2154   1.260       .  A
O2148     Al2152   1.786       .  S
O2149      C2150   1.260       .  A
C2150      C2740   1.479       .  S
C2151      C2663   1.482       .  S
C2154      C2795   1.480       .  S
C2155      O2156   1.263       .  A
C2155      C2652   1.483       .  S
O2157      C2172   1.261       .  A
O2157     Al2165   1.903       .  S
C2158      O2168   1.261       .  A
C2158      O2159   1.259       .  A
C2158      C2564   1.479       .  S
O2159     Al2161   1.898       .  S
O2160      C2162   1.261       .  A
O2160     Al2161   1.893       .  S
Al2161     O2169   1.890       .  S
Al2161     O2171   1.901       .  S
Al2161     O2170   1.785       .  S
C2162      O2175   1.264       .  A
C2162      C2575   1.480       .  S
O2163      C2173   1.261       .  A
O2163     Al2165   1.897       .  S
O2164      C2177   1.260       .  A
O2164     Al2174   1.897       .  S
Al2165     O2178   1.909       .  S
Al2165     O2175   1.918       .  S
Al2165     O2170   1.786       .  S
O2166      C2173   1.263       .  A
O2166     Al2174   1.912       .  S
O2167      C2176   1.265       .  A
O2167     Al2174   1.918       .  S
O2168     Al2174   1.904       .  S
O2169      C2176   1.261       .  A
O2170     Al2174   1.785       .  S
O2171      C2172   1.260       .  A
C2172      C2608   1.478       .  S
C2173      C2531   1.482       .  S
C2176      C2619   1.479       .  S
C2177      O2178   1.262       .  A
C2177      C2509   1.481       .  S
O2179      C2194   1.261       .  A
C2180      O2190   1.261       .  A
C2180      O2181   1.260       .  A
C2180      C2597   1.477       .  S
O2182      C2184   1.260       .  A
Al2183     O2191   1.888       .  S
Al2183     O2193   1.904       .  S
C2184      O2197   1.266       .  A
C2184      C2586   1.480       .  S
O2185      C2195   1.261       .  A
O2185     Al2187   1.893       .  S
O2186      C2199   1.260       .  A
O2186     Al2196   1.895       .  S
Al2187     O2197   1.926       .  S
Al2187     O2192   1.783   1_655  S
O2188      C2195   1.264       .  A
O2189      C2198   1.265       .  A
O2189     Al2196   1.922       .  S
O2191      C2198   1.260       .  A
O2193      C2194   1.260       .  A
C2194      C2553   1.479       .  S
C2195      C2674   1.482       .  S
C2198      C2630   1.479       .  S
C2199      O2200   1.264       .  A
C2199      C2641   1.482       .  S
O2201      C2216   1.265       .  A
O2201     Al2209   1.926       .  S
C2202      O2212   1.264       .  A
C2202      O2203   1.259       .  A
C2202      C2421   1.479       .  S
O2203     Al2205   1.887       .  S
O2204      C2206   1.263       .  A
O2204     Al2205   1.912       .  S
Al2205     O2213   1.908       .  S
Al2205     O2215   1.893       .  S
Al2205     O2214   1.782       .  S
C2206      O2219   1.261       .  A
C2206      C2454   1.481       .  S
O2207      C2217   1.263       .  A
O2207     Al2209   1.917       .  S
O2208      C2221   1.264       .  A
O2208     Al2218   1.914       .  S
Al2209     O2222   1.896       .  S
Al2209     O2219   1.900       .  S
Al2209     O2214   1.785       .  S
O2210      C2217   1.260       .  A
O2210     Al2218   1.894       .  S
O2211      C2220   1.259       .  A
O2211     Al2218   1.896       .  S
O2212     Al2218   1.921       .  S
O2213      C2220   1.261       .  A
O2214     Al2218   1.786       .  S
O2215      C2216   1.260       .  A
C2216      C2465   1.483       .  S
C2217      C2542   1.481       .  S
C2220      C2498   1.479       .  S
C2221      O2222   1.262       .  A
C2221      C2520   1.480       .  S
O2223      C2238   1.261       .  A
C2224      O2234   1.261       .  A
C2224      O2225   1.262       .  A
C2224      C2432   1.480       .  S
O2226      C2228   1.259       .  A
Al2227     O2235   1.889       .  S
Al2227     O2237   1.912       .  S
Al2227     O2236   1.783       .  S
C2228      O2241   1.264       .  A
C2228      C2487   1.480       .  S
O2229      C2239   1.261       .  A
O2229     Al2231   1.899       .  S
O2230      C2243   1.262       .  A
O2230     Al2240   1.900       .  S
Al2231     O2241   1.921       .  S
O2232      C2239   1.263       .  A
O2233      C2242   1.264       .  A
O2233     Al2240   1.921       .  S
O2235      C2242   1.259       .  A
O2236     Al2240   1.786       .  S
O2237      C2238   1.262       .  A
C2238      C2476   1.482       .  S
C2239      C2377   1.481       .  S
C2242      C2443   1.479       .  S
C2243      O2244   1.264       .  A
C2243      C2399   1.481       .  S
O2245      C2260   1.259       .  A
O2245     Al2253   1.896       .  S
C2246      O2256   1.261       .  A
C2246      O2247   1.261       .  A
C2246      C2344   1.481       .  S
O2247     Al2249   1.906       .  S
O2248      C2250   1.260       .  A
Al2249     O2257   1.887       .  S
Al2249     O2258   1.784       .  S
C2250      O2263   1.265       .  A
C2250      C2355   1.480       .  S
O2251     Al2253   1.893       .  S
O2252     Al2262   1.900       .  S
Al2253     O2266   1.914       .  S
Al2253     O2263   1.923       .  S
O2254      C2261   1.264   1_655  A
O2254     Al2262   1.919       .  S
O2255      C2264   1.266       .  A
O2255     Al2262   1.929       .  S
O2256     Al2262   1.905       .  S
O2257      C2264   1.260       .  A
O2258     Al2262   1.786       .  S
O2259      C2260   1.260       .  A
C2260      C2300   1.478       .  S
C2261      C2696   1.483       .  S
C2264      C2311   1.482       .  S
C2265      O2266   1.263       .  A
C2265      C2718   1.483       .  S
O2267      C2282   1.265       .  A
O2267     Al2275   1.921       .  S
C2268      O2278   1.265       .  A
C2268      O2269   1.259       .  A
C2268      C2333   1.480       .  S
O2269     Al2271   1.886       .  S
O2270      C2272   1.262       .  A
O2270     Al2271   1.909       .  S
Al2271     O2279   1.910       .  S
Al2271     O2281   1.887       .  S
Al2271     O2280   1.782       .  S
C2272      O2285   1.261       .  A
C2272      C2322   1.482       .  S
O2273      C2283   1.265       .  A
O2273     Al2275   1.919       .  S
O2274      C2287   1.263       .  A
O2274     Al2284   1.914       .  S
Al2275     O2288   1.899       .  S
Al2275     O2285   1.903       .  S
Al2275     O2280   1.785       .  S
O2276      C2283   1.261       .  A
O2276     Al2284   1.893       .  S
O2277      C2286   1.261       .  A
O2277     Al2284   1.900       .  S
O2278     Al2284   1.924       .  S
O2279      C2286   1.262       .  A
O2280     Al2284   1.785       .  S
O2281      C2282   1.259       .  A
C2282      C2289   1.478       .  S
C2283      C2410   1.482       .  S
C2286      C2366   1.480       .  S
C2287      O2288   1.261       .  A
C2287      C2388   1.481       .  S
C2289      C2290   1.408       .  A
C2289      C2294   1.406       .  A
C2290      C2291   1.398       .  A
C2290      H2303   1.083       .  S
C2291      C2292   1.399       .  A
C2291      H2304   1.084       .  S
C2292      C2293   1.399       .  A
C2292      C2295   1.437       .  S
C2293      C2294   1.397       .  A
C2293      H2305   1.084       .  S
C2294      H2306   1.083       .  S
C2295      C2296   1.204       .  T
C2296      C2297   1.437       .  S
C2297      C2298   1.400       .  A
C2297      C2302   1.398       .  A
C2298      C2299   1.398       .  A
C2298      H2307   1.083       .  S
C2299      C2300   1.406       .  A
C2299      H2308   1.083       .  S
C2300      C2301   1.408       .  A
C2301      C2302   1.397       .  A
C2301      H2309   1.083       .  S
C2302      H2310   1.084       .  S
C2311      C2312   1.408       .  A
C2311      C2316   1.407       .  A
C2312      C2313   1.398       .  A
C2312      H2325   1.083       .  S
C2313      C2314   1.399       .  A
C2313      H2326   1.084       .  S
C2314      C2315   1.401       .  A
C2314      C2317   1.442       .  S
C2315      C2316   1.400       .  A
C2315      H2327   1.083       .  S
C2316      H2328   1.083       .  S
C2317      C2318   1.207       .  T
C2318      C2319   1.442       .  S
C2319      C2320   1.402       .  A
C2319      C2324   1.398       .  A
C2320      C2321   1.402       .  A
C2320      H2329   1.083       .  S
C2321      C2322   1.407       .  A
C2321      H2330   1.083       .  S
C2322      C2323   1.408       .  A
C2323      C2324   1.397       .  A
C2323      H2331   1.083       .  S
C2324      H2332   1.084       .  S
C2333      C2334   1.407       .  A
C2333      C2338   1.408       .  A
C2334      C2335   1.399       .  A
C2334      H2347   1.083       .  S
C2335      C2336   1.400       .  A
C2335      H2348   1.083       .  S
C2336      C2337   1.399       .  A
C2336      C2339   1.440       .  S
C2337      C2338   1.398       .  A
C2337      H2349   1.084       .  S
C2338      H2350   1.083       .  S
C2340      C2341   1.440       .  S
C2341      C2342   1.401       .  A
C2341      C2346   1.398       .  A
C2342      C2343   1.401       .  A
C2342      H2351   1.083       .  S
C2343      C2344   1.407       .  A
C2343      H2352   1.083       .  S
C2344      C2345   1.408       .  A
C2345      C2346   1.396       .  A
C2345      H2353   1.083       .  S
C2346      H2354   1.084       .  S
C2355      C2356   1.408       .  A
C2355      C2360   1.407       .  A
C2356      C2357   1.397       .  A
C2356      H2369   1.083       .  S
C2357      C2358   1.399       .  A
C2357      H2370   1.084       .  S
C2358      C2359   1.400       .  A
C2358      C2361   1.439       .  S
C2359      C2360   1.398       .  A
C2359      H2371   1.083       .  S
C2360      H2372   1.083       .  S
C2361      C2362   1.205       .  T
C2363      C2364   1.398       .  A
C2363      C2368   1.401       .  A
C2364      C2365   1.396       .  A
C2364      H2373   1.084       .  S
C2365      C2366   1.408       .  A
C2365      H2374   1.083       .  S
C2366      C2367   1.407       .  A
C2367      C2368   1.400       .  A
C2367      H2375   1.083       .  S
C2368      H2376   1.083       .  S
C2377      C2378   1.407       .  A
C2377      C2382   1.408       .  A
C2378      C2379   1.399       .  A
C2378      H2391   1.083       .  S
C2379      C2380   1.400       .  A
C2379      H2392   1.083       .  S
C2380      C2381   1.398       .  A
C2380      C2383   1.439       .  S
C2381      C2382   1.397       .  A
C2381      H2393   1.084       .  S
C2382      H2394   1.083       .  S
C2383      C2384   1.206       .  T
C2384      C2385   1.440       .  S
C2385      C2386   1.400       .  A
C2385      C2390   1.399       .  A
C2386      C2387   1.400       .  A
C2386      H2395   1.083       .  S
C2387      C2388   1.407       .  A
C2387      H2396   1.083       .  S
C2388      C2389   1.408       .  A
C2389      C2390   1.397       .  A
C2389      H2397   1.083       .  S
C2390      H2398   1.084       .  S
C2399      C2400   1.407       .  A
C2399      C2404   1.408       .  A
C2400      C2401   1.400       .  A
C2400      H2413   1.083       .  S
C2401      C2402   1.401       .  A
C2401      H2414   1.083       .  S
C2402      C2403   1.399       .  A
C2402      C2405   1.441       .  S
C2403      C2404   1.398       .  A
C2403      H2415   1.084       .  S
C2404      H2416   1.083       .  S
C2405      C2406   1.207       .  T
C2406      C2407   1.441       .  S
C2407      C2408   1.400       .  A
C2407      C2412   1.399       .  A
C2408      C2409   1.400       .  A
C2408      H2417   1.083       .  S
C2409      C2410   1.408       .  A
C2409      H2418   1.083       .  S
C2410      C2411   1.407       .  A
C2411      C2412   1.398       .  A
C2411      H2419   1.083       .  S
C2412      H2420   1.084       .  S
C2421      C2422   1.408       .  A
C2421      C2426   1.407       .  A
C2422      C2423   1.397       .  A
C2422      H2435   1.083       .  S
C2423      C2424   1.398       .  A
C2423      H2436   1.084       .  S
C2424      C2425   1.400       .  A
C2424      C2427   1.438       .  S
C2425      C2426   1.398       .  A
C2425      H2437   1.083       .  S
C2426      H2438   1.083       .  S
C2427      C2428   1.205       .  T
C2428      C2429   1.438       .  S
C2429      C2430   1.398       .  A
C2429      C2434   1.401       .  A
C2430      C2431   1.396       .  A
C2430      H2439   1.084       .  S
C2431      C2432   1.408       .  A
C2431      H2440   1.083       .  S
C2432      C2433   1.407       .  A
C2433      C2434   1.400       .  A
C2433      H2441   1.083       .  S
C2434      H2442   1.083       .  S
C2443      C2444   1.407       .  A
C2443      C2448   1.407       .  A
C2444      C2445   1.398       .  A
C2444      H2457   1.083       .  S
C2445      C2446   1.399       .  A
C2445      H2458   1.083       .  S
C2446      C2447   1.400       .  A
C2446      C2449   1.439       .  S
C2447      C2448   1.398       .  A
C2447      H2459   1.083       .  S
C2448      H2460   1.083       .  S
C2449      C2450   1.206       .  T
C2450      C2451   1.440       .  S
C2451      C2452   1.398       .  A
C2451      C2456   1.401       .  A
C2452      C2453   1.396       .  A
C2452      H2461   1.084       .  S
C2453      C2454   1.408       .  A
C2453      H2462   1.083       .  S
C2454      C2455   1.407       .  A
C2455      C2456   1.400       .  A
C2455      H2463   1.083       .  S
C2456      H2464   1.083       .  S
C2465      C2466   1.408       .  A
C2465      C2470   1.407       .  A
C2466      C2467   1.400       .  A
C2466      H2479   1.083       .  S
C2467      C2468   1.400       .  A
C2467      H2480   1.083       .  S
C2468      C2469   1.400       .  A
C2468      C2471   1.442       .  S
C2469      C2470   1.399       .  A
C2469      H2481   1.083       .  S
C2470      H2482   1.083       .  S
C2472      C2473   1.442       .  S
C2473      C2474   1.399       .  A
C2473      C2478   1.401       .  A
C2474      C2475   1.397       .  A
C2474      H2483   1.084       .  S
C2475      C2476   1.408       .  A
C2475      H2484   1.083       .  S
C2476      C2477   1.407       .  A
C2477      C2478   1.401       .  A
C2477      H2485   1.083       .  S
C2478      H2486   1.083       .  S
C2487      C2488   1.408       .  A
C2487      C2492   1.407       .  A
C2488      C2489   1.398       .  A
C2488      H2501   1.083       .  S
C2489      C2490   1.399       .  A
C2489      H2502   1.084       .  S
C2490      C2491   1.400       .  A
C2491      C2492   1.398       .  A
C2491      H2503   1.083       .  S
C2492      H2504   1.083       .  S
C2493      C2494   1.205       .  T
C2494      C2495   1.438       .  S
C2495      C2496   1.398       .  A
C2495      C2500   1.401       .  A
C2496      C2497   1.395       .  A
C2496      H2505   1.084       .  S
C2497      C2498   1.407       .  A
C2497      H2506   1.083       .  S
C2498      C2499   1.407       .  A
C2499      C2500   1.400       .  A
C2499      H2507   1.083       .  S
C2500      H2508   1.083       .  S
C2509      C2510   1.408       .  A
C2509      C2514   1.407       .  A
C2510      C2511   1.398       .  A
C2510      H2523   1.083       .  S
C2511      C2512   1.399       .  A
C2511      H2524   1.084       .  S
C2512      C2513   1.400       .  A
C2512      C2515   1.440       .  S
C2513      C2514   1.399       .  A
C2514      H2526   1.083       .  S
C2516      C2517   1.440       .  S
C2517      C2518   1.399       .  A
C2517      C2522   1.400       .  A
C2518      C2519   1.398       .  A
C2518      H2527   1.084       .  S
C2519      C2520   1.408       .  A
C2519      H2528   1.083       .  S
C2520      C2521   1.407       .  A
C2521      C2522   1.399       .  A
C2521      H2529   1.083       .  S
C2531      C2532   1.408       .  A
C2531      C2536   1.407       .  A
C2532      C2533   1.398       .  A
C2532      H2545   1.083       .  S
C2533      C2534   1.399       .  A
C2533      H2546   1.084       .  S
C2534      C2535   1.400       .  A
C2534      C2537   1.441       .  S
C2535      C2536   1.400       .  A
C2535      H2547   1.083       .  S
C2536      H2548   1.083       .  S
C2537      C2538   1.207       .  T
C2538      C2539   1.441       .  S
C2539      C2540   1.399       .  A
C2539      C2544   1.400       .  A
C2540      C2541   1.398       .  A
C2540      H2549   1.084       .  S
C2541      C2542   1.407       .  A
C2541      H2550   1.083       .  S
C2542      C2543   1.407       .  A
C2543      C2544   1.399       .  A
C2543      H2551   1.083       .  S
C2544      H2552   1.083       .  S
C2553      C2554   1.406       .  A
C2553      C2558   1.408       .  A
C2554      C2555   1.400       .  A
C2554      H2567   1.083       .  S
C2555      C2556   1.401       .  A
C2555      H2568   1.083       .  S
C2556      C2557   1.397       .  A
C2556      C2559   1.438       .  S
C2557      C2558   1.395       .  A
C2557      H2569   1.084       .  S
C2558      H2570   1.083       .  S
C2559      C2560   1.205       .  T
C2560      C2561   1.438       .  S
C2561      C2562   1.401       .  A
C2561      C2566   1.397       .  A
C2562      C2563   1.400       .  A
C2562      H2571   1.083       .  S
C2563      C2564   1.406       .  A
C2563      H2572   1.083       .  S
C2564      C2565   1.409       .  A
C2565      C2566   1.395       .  A
C2565      H2573   1.083       .  S
C2566      H2574   1.084       .  S
C2575      C2576   1.407       .  A
C2575      C2580   1.407       .  A
C2576      C2577   1.399       .  A
C2576      H2589   1.083       .  S
C2577      C2578   1.400       .  A
C2577      H2590   1.083       .  S
C2578      C2579   1.399       .  A
C2578      C2581   1.439       .  S
C2579      C2580   1.397       .  A
C2579      H2591   1.083       .  S
C2580      H2592   1.083       .  S
C2581      C2582   1.206       .  T
C2582      C2583   1.439       .  S
C2583      C2584   1.400       .  A
C2583      C2588   1.399       .  A
C2584      C2585   1.398       .  A
C2584      H2593   1.083       .  S
C2585      C2586   1.407       .  A
C2585      H2594   1.083       .  S
C2586      C2587   1.408       .  A
C2587      C2588   1.398       .  A
C2587      H2595   1.083       .  S
C2588      H2596   1.084       .  S
C2597      C2598   1.406       .  A
C2597      C2602   1.408       .  A
C2598      C2599   1.400       .  A
C2598      H2611   1.083       .  S
C2599      C2600   1.401       .  A
C2600      C2601   1.397       .  A
C2600      C2603   1.436       .  S
C2601      C2602   1.394       .  A
C2601      H2613   1.084       .  S
C2602      H2614   1.083       .  S
C2604      C2605   1.436       .  S
C2605      C2606   1.401       .  A
C2605      C2610   1.397       .  A
C2606      C2607   1.400       .  A
C2606      H2615   1.083       .  S
C2607      C2608   1.406       .  A
C2607      H2616   1.083       .  S
C2608      C2609   1.408       .  A
C2609      C2610   1.394       .  A
C2609      H2617   1.083       .  S
C2610      H2618   1.084       .  S
C2619      C2620   1.407       .  A
C2619      C2624   1.407       .  A
C2620      C2621   1.398       .  A
C2620      H2633   1.083       .  S
C2621      C2622   1.399       .  A
C2621      H2634   1.084       .  S
C2622      C2623   1.399       .  A
C2622      C2625   1.438       .  S
C2623      C2624   1.398       .  A
C2623      H2635   1.084       .  S
C2624      H2636   1.083       .  S
C2625      C2626   1.205   1_565  T
C2627      C2628   1.399       .  A
C2627      C2632   1.399       .  A
C2628      C2629   1.398       .  A
C2628      H2637   1.084       .  S
C2629      C2630   1.408       .  A
C2629      H2638   1.083       .  S
C2630      C2631   1.407       .  A
C2631      C2632   1.398       .  A
C2631      H2639   1.083       .  S
C2632      H2640   1.083       .  S
C2641      C2642   1.408       .  A
C2641      C2646   1.408       .  A
C2642      C2643   1.400       .  A
C2642      H2655   1.083       .  S
C2643      C2644   1.400       .  A
C2643      H2656   1.083       .  S
C2644      C2645   1.399       .  A
C2644      C2647   1.441       .  S
C2645      C2646   1.398       .  A
C2645      H2657   1.084       .  S
C2646      H2658   1.083       .  S
C2647      C2648   1.207       .  T
C2648      C2649   1.441       .  S
C2649      C2650   1.400       .  A
C2649      C2654   1.400       .  A
C2650      C2651   1.399       .  A
C2650      H2659   1.084       .  S
C2651      C2652   1.408       .  A
C2651      H2660   1.083       .  S
C2652      C2653   1.408       .  A
C2653      C2654   1.399       .  A
C2653      H2661   1.083       .  S
C2654      H2662   1.083       .  S
C2663      C2664   1.407       .  A
C2663      C2668   1.408       .  A
C2664      C2665   1.398       .  A
C2664      H2677   1.083       .  S
C2665      C2666   1.399       .  A
C2665      H2678   1.084       .  S
C2666      C2667   1.400       .  A
C2666      C2669   1.441       .  S
C2667      C2668   1.400       .  A
C2667      H2679   1.083       .  S
C2668      H2680   1.083       .  S
C2669      C2670   1.207       .  T
C2670      C2671   1.441       .  S
C2671      C2672   1.400       .  A
C2671      C2676   1.400       .  A
C2672      C2673   1.399       .  A
C2672      H2681   1.083       .  S
C2673      C2674   1.407       .  A
C2673      H2682   1.083       .  S
C2674      C2675   1.408       .  A
C2675      C2676   1.399       .  A
C2675      H2683   1.083       .  S
C2676      H2684   1.084       .  S
C2685      C2686   1.408   1_455  A
C2686      C2687   1.399       .  A
C2686      H2699   1.083       .  S
C2687      C2688   1.400   1_655  A
C2687      H2700   1.084       .  S
C2688      C2691   1.443       .  S
C2689      C2690   1.401       .  A
C2689      H2701   1.083       .  S
C2690      H2702   1.083       .  S
C2692      C2693   1.443       .  S
C2693      C2698   1.400   1_455  A
C2694      C2695   1.400       .  A
C2694      H2703   1.083       .  S
C2695      H2704   1.083       .  S
C2696      C2697   1.407   1_455  A
C2697      C2698   1.399       .  A
C2697      H2705   1.083       .  S
C2698      H2706   1.083       .  S
C2707      C2712   1.408       .  A
C2708      C2709   1.400       .  A
C2708      H2721   1.083       .  S
C2709      H2722   1.083       .  S
C2710      C2711   1.399       .  A
C2710      C2713   1.442       .  S
C2711      C2712   1.399       .  A
C2711      H2723   1.084       .  S
C2712      H2724   1.083       .  S
C2713      C2714   1.207   1_556  T
C2714      C2715   1.442       .  S
C2715      C2716   1.399       .  A
C2716      C2717   1.398       .  A
C2716      H2725   1.084       .  S
C2717      C2718   1.408       .  A
C2717      H2726   1.083       .  S
C2719      C2720   1.401       .  A
C2719      H2727   1.083       .  S
C2720      H2728   1.083       .  S
C2729      C2730   1.405       .  A
C2729      C2734   1.408       .  A
C2730      C2731   1.400       .  A
C2730      H2743   1.083       .  S
C2731      C2732   1.401       .  A
C2731      H2744   1.083       .  S
C2732      C2733   1.397       .  A
C2732      C2735   1.438       .  S
C2733      C2734   1.395       .  A
C2733      H2745   1.084       .  S
C2734      H2746   1.083       .  S
C2735      C2736   1.205       .  T
C2736      C2737   1.437       .  S
C2737      C2738   1.401       .  A
C2737      C2742   1.397       .  A
C2738      C2739   1.400       .  A
C2738      H2747   1.083       .  S
C2739      C2740   1.406       .  A
C2739      H2748   1.083       .  S
C2740      C2741   1.408       .  A
C2741      C2742   1.395       .  A
C2741      H2749   1.083       .  S
C2742      H2750   1.084       .  S
C2751      C2752   1.408       .  A
C2751      C2756   1.407       .  A
C2752      C2753   1.398       .  A
C2752      H2765   1.083       .  S
C2753      C2754   1.399       .  A
C2753      H2766   1.084       .  S
C2754      C2755   1.400       .  A
C2754      C2757   1.439       .  S
C2755      C2756   1.398       .  A
C2755      H2767   1.083       .  S
C2756      H2768   1.083       .  S
C2757      C2758   1.206       .  T
C2758      C2759   1.439       .  S
C2759      C2760   1.400       .  A
C2759      C2764   1.399       .  A
C2760      C2761   1.399       .  A
C2760      H2769   1.083       .  S
C2761      C2762   1.407       .  A
C2761      H2770   1.083       .  S
C2762      C2763   1.408       .  A
C2763      C2764   1.398       .  A
C2763      H2771   1.083       .  S
C2764      H2772   1.084       .  S
C2773      C2774   1.407       .  A
C2773      C2778   1.408       .  A
C2774      C2775   1.401       .  A
C2774      H2787   1.083       .  S
C2775      C2776   1.402       .  A
C2776      C2777   1.397       .  A
C2776      C2779   1.439       .  S
C2777      C2778   1.395       .  A
C2777      H2789   1.084       .  S
C2778      H2790   1.083       .  S
C2780      C2781   1.439       .  S
C2781      C2782   1.402       .  A
C2781      C2786   1.397       .  A
C2782      C2783   1.401       .  A
C2783      C2784   1.406       .  A
C2783      H2792   1.083       .  S
C2784      C2785   1.408       .  A
C2785      C2786   1.395       .  A
C2785      H2793   1.083       .  S
C2786      H2794   1.084       .  S
C2795      C2796   1.407       .  A
C2795      C2800   1.408       .  A
C2796      C2797   1.398       .  A
C2796      H2809   1.083       .  S
C2797      C2798   1.399       .  A
C2798      C2799   1.399       .  A
C2798      C2801   1.438       .  S
C2799      C2800   1.398       .  A
C2799      H2811   1.084       .  S
C2800      H2812   1.083       .  S
C2802      C2803   1.438       .  S
C2803      C2804   1.399       .  A
C2803      C2808   1.400       .  A
C2804      C2805   1.398       .  A
C2804      H2813   1.084       .  S
C2805      C2806   1.407       .  A
C2805      H2814   1.083       .  S
C2806      C2807   1.407       .  A
C2807      C2808   1.398       .  A
C2807      H2815   1.083       .  S
C2808      H2816   1.083       .  S
