geometry optimzed in LAMMPS
_audit_creation_date              2020-12-01 
_audit_creation_method            'lammps2cif' 
_symmetry_space_group_name_H-M    'P1' 
_symmetry_Int_Tables_number       1 
_symmetry_cell_setting            triclinic 
loop_ 
_symmetry_equiv_pos_as_xyz 
  x,y,z 
_cell_length_a                    51.50196984 
_cell_length_b                    51.52005395134224 
_cell_length_c                    51.4320848337297 
_cell_angle_alpha                 90.06987645829427 
_cell_angle_beta                  90.02841928254581 
_cell_angle_gamma                 90.03287621226185 
loop_ 
_atom_site_label 
_atom_site_type_symbol 
_atom_site_fract_x 
_atom_site_fract_y 
_atom_site_fract_z 
_atom_site_charge 
N1          N  0.99859481  0.23373906  0.54088505    -0.36100
N2          N  0.03850878  0.23234717  0.50101628    -0.56600
N3          N  0.99806884  0.23088126  0.46187242    -0.36100
N4          N  0.95809344  0.22840648  0.50145380    -0.56600
C5          C  0.02006942  0.22967687  0.55551846     0.27500
C6          C  0.97781448  0.22765324  0.55576706     0.27500
C7          C  0.01935982  0.22449481  0.44787241     0.27500
C8          C  0.97718611  0.22289501  0.44805875     0.27500
C9          C  0.05333500  0.23864450  0.52173114     0.36100
C10         C  0.05305777  0.23711941  0.47970491     0.36100
C11         C  0.94330869  0.23372869  0.52248927     0.36100
C12         C  0.94304470  0.23277953  0.48034473     0.36100
C13         C  0.01284218  0.22094169  0.57996101    -0.21300
C14         C  0.98618653  0.21965136  0.58011718    -0.21300
C15         C  0.01194920  0.21194294  0.42519188    -0.21300
C16         C  0.98531741  0.21094281  0.42529801    -0.21300
C17         C  0.07744099  0.24742233  0.51356461    -0.22400
C18         C  0.07724455  0.24650054  0.48685484    -0.22400
C19         C  0.91870348  0.24138586  0.51476442    -0.22400
C20         C  0.91859764  0.24101815  0.48803166    -0.22400
C21         C  0.04590351  0.23490591  0.54785708    -0.17800
C22         C  0.95150711  0.23070567  0.54853319    -0.17800
C23         C  0.95104868  0.22807909  0.45446050    -0.17700
C24         C  0.04512267  0.23152613  0.45408969    -0.17700
H25         H  0.02544645  0.21613023  0.59609427     0.15200
H26         H  0.97432873  0.21365837  0.59641083     0.15200
H27         H  0.02443132  0.20451855  0.40998431     0.15200
H28         H  0.97330149  0.20256292  0.41019220     0.15200
H29         H  0.09352652  0.25367874  0.52558884     0.13400
H30         H  0.09314343  0.25187416  0.47420604     0.13400
H31         H  0.90260230  0.24693253  0.52708622     0.13400
H32         H  0.90237422  0.24635926  0.47580954     0.13400
H33         H  0.99800053  0.24288331  0.52289714     0.26700
H34         H  0.99767059  0.24302029  0.47806179     0.26700
O35         O  0.22894395  0.21238951  0.27468512    -0.87800
C36         C  0.22966682  0.28895988  0.29551553     0.88200
Mg37       Mg  0.26340320  0.19072111  0.26547669     1.58100
O38         O  0.20732217  0.27664142  0.23199171    -0.87500
O39         O  0.19153603  0.22202682  0.25714681    -0.74900
C40         C  0.32821707  0.26409663  0.18254227     0.93300
O41         O  0.27304012  0.24372439  0.30584377    -0.74700
O42         O  0.33269485  0.24824567  0.20094517    -0.82200
Mg43       Mg  0.22961012  0.23481312  0.31022661     1.58000
C44         C  0.23706934  0.32204466  0.17154112     0.93200
O45         O  0.18711848  0.22660575  0.32115476    -0.80400
H46         H  0.18256190  0.25924679  0.20765197    -0.05800
C47         C  0.28429676  0.29699770  0.23751483     0.88100
O48         O  0.25692790  0.19616103  0.22177885    -0.75000
O49         O  0.21911965  0.26857706  0.28855700    -0.87700
O50         O  0.22440148  0.32518574  0.19265495    -0.80500
C51         C  0.17392414  0.32972446  0.26113966     0.93300
C52         C  0.16506523  0.23742593  0.31833750     0.93200
Mg53       Mg  0.26346616  0.26776692  0.19086220     1.58000
O54         O  0.30616366  0.27493205  0.17950207    -0.80500
O55         O  0.21994783  0.25928402  0.19527400    -0.74700
O56         O  0.17078355  0.30718150  0.27076009    -0.80500
O57         O  0.24057493  0.19971957  0.33343459    -0.82200
O58         O  0.32292638  0.19496921  0.23126721    -0.80600
C59         C  0.20233325  0.26519946  0.21147379     0.87600
O60         O  0.27396738  0.23381910  0.21246830    -0.87700
O61         O  0.26417888  0.29044108  0.22622198    -0.87800
O62         O  0.30168144  0.28059470  0.24344812    -0.74900
Mg63       Mg  0.18451515  0.26533008  0.26500900     1.58000
O64         O  0.19318464  0.33544372  0.24666864    -0.82200
H65         H  0.20661594  0.18565640  0.25750525    -0.06000
O66         O  0.28562436  0.22640458  0.26907620    -0.87500
H67         H  0.31037067  0.24399919  0.29329940    -0.05800
H68         H  0.25896789  0.21059421  0.18516502    -0.06000
C69         C  0.29062343  0.23791239  0.28956569     0.87600
C70         C  0.20896638  0.20572788  0.26320074     0.88200
C71         C  0.26349902  0.21340662  0.20550299     0.88200
H72         H  0.28685828  0.31707893  0.24308286    -0.05900
O73         O  0.23617617  0.30627583  0.27927714    -0.75000
Mg74       Mg  0.30867075  0.23711967  0.23613558     1.58000
H75         H  0.23434341  0.29167997  0.31583348    -0.06000
C76         C  0.25688158  0.18167025  0.32961256     0.93200
O77         O  0.29963219  0.16757943  0.25544237    -0.82200
C78         C  0.31933354  0.17272093  0.24145442     0.93300
O79         O  0.16057766  0.25365295  0.30025219    -0.82200
Mg80       Mg  0.22959514  0.31234101  0.23565354     1.58200
O81         O  0.26879221  0.17876969  0.30810046    -0.80500
O82         O  0.25289128  0.30342983  0.16822212    -0.82200
O83         O  0.76428005  0.24588557  0.70549422    -0.87800
C84         C  0.75223329  0.18558884  0.75653639     0.88200
Mg85       Mg  0.79207124  0.27622501  0.71329060     1.58100
O86         O  0.70115425  0.23106216  0.75532156    -0.87500
O87         O  0.72275459  0.23996017  0.69801215    -0.74900
C88         C  0.76294367  0.31500264  0.83174297     0.93300
O89         O  0.80553497  0.21883141  0.74378700    -0.74700
O90         O  0.78162546  0.31397752  0.81570313    -0.82200
Mg91       Mg  0.77818619  0.20696786  0.71034692     1.58000
C92         C  0.67132710  0.25874308  0.82530593     0.93200
O93         O  0.75460142  0.19153624  0.67559733    -0.80400
H94         H  0.67313195  0.24964747  0.73595158    -0.05800
C95         C  0.75476514  0.24064075  0.81285519     0.88100
O96         O  0.75905270  0.30294927  0.72741782    -0.75000
O97         O  0.74710158  0.19941234  0.73761888    -0.87700
O98         O  0.67449819  0.23721203  0.81348143    -0.80500
C99         C  0.67724139  0.16712723  0.76635886     0.93300
C100        C  0.73423426  0.17773251  0.67321576     0.93200
Mg101      Mg  0.72007382  0.28462411  0.79460428     1.58000
O102        O  0.74259315  0.30127593  0.82912188    -0.80500
O103        O  0.69293204  0.27216603  0.76157245    -0.74700
O104        O  0.68906903  0.17138700  0.74496202    -0.80500
O105        O  0.81119151  0.21437661  0.68202834    -0.82200
O106        O  0.80710738  0.32093074  0.76120991    -0.80600
C107        C  0.68821264  0.25064683  0.75054849     0.87600
O108        O  0.75133191  0.29160730  0.76761910    -0.87700
O109        O  0.73491700  0.24594861  0.80040868    -0.87800
O110        O  0.77620909  0.25212158  0.80867122    -0.74900
Mg111      Mg  0.70841249  0.20569210  0.72326203     1.58000
O112        O  0.67988520  0.18186250  0.78603334    -0.82200
H113        H  0.74459735  0.26720640  0.67969140    -0.06000
O114        O  0.79750612  0.25986147  0.75125917    -0.87500
H115        H  0.82502046  0.24037977  0.77053744    -0.05800
H116        H  0.73209616  0.32051641  0.75025753    -0.06000
C117        C  0.81012960  0.23995914  0.75572032     0.87600
C118        C  0.74413628  0.25158642  0.69370311     0.88200
C119        C  0.74689209  0.30571812  0.74873013     0.88200
H120        H  0.75401485  0.22536827  0.82723297    -0.05900
O121        O  0.74098908  0.18873783  0.77828452    -0.75000
Mg122      Mg  0.78971291  0.28599995  0.78285619     1.58000
H123        H  0.76705463  0.17084808  0.75469682    -0.06000
C124        C  0.82806517  0.23238364  0.68131876     0.93200
O125        O  0.82115549  0.30860362  0.72217686    -0.82200
C126        C  0.82122888  0.32442512  0.74121065     0.93300
O127        O  0.71597289  0.17819857  0.68981085    -0.82200
Mg128      Mg  0.70805457  0.21492227  0.79348877     1.58200
O129        O  0.82587397  0.25304076  0.69483633    -0.80500
O130        O  0.68701805  0.27760488  0.82264211    -0.82200
N131        N  0.49923296  0.04141411  0.24503671    -0.36100
N132        N  0.45964822  0.00092871  0.24473619    -0.56600
N133        N  0.50040377  0.96170728  0.24369464    -0.36100
N134        N  0.53982854  0.00189635  0.24296327    -0.56600
C135        C  0.47752777  0.05544202  0.23992703     0.27500
C136        C  0.52000750  0.05606170  0.23804787     0.27500
C137        C  0.47930085  0.94642896  0.24011757     0.27500
C138        C  0.52172453  0.94688231  0.23967419     0.27500
C139        C  0.44443667  0.02168016  0.24999943     0.36100
C140        C  0.44518080  0.97955664  0.24964943     0.36100
C141        C  0.55511416  0.02317642  0.24444812     0.36100
C142        C  0.55568488  0.98109500  0.24531264     0.36100
C143        C  0.48467793  0.07916083  0.22941452    -0.21300
C144        C  0.51131946  0.07977467  0.22875577    -0.21300
C145        C  0.48738558  0.92151012  0.23384715    -0.21300
C146        C  0.51400609  0.92177841  0.23361315    -0.21300
C147        C  0.42020110  0.01340660  0.25832038    -0.22400
C148        C  0.42057479  0.98680936  0.25780951    -0.22400
C149        C  0.58091031  0.01573355  0.24697934    -0.22400
C150        C  0.58123861  0.98921365  0.24757416    -0.22400
C151        C  0.45156054  0.04786490  0.24558223    -0.17800
C152        C  0.54653058  0.04906861  0.24107340    -0.17800
C153        C  0.54780142  0.95483815  0.24349725    -0.17700
C154        C  0.45321165  0.95367268  0.24511553    -0.17700
H155        H  0.47213177  0.09459318  0.22273066     0.15200
H156        H  0.52270260  0.09603094  0.22203107     0.15200
H157        H  0.47558931  0.90442695  0.23078960     0.15200
H158        H  0.52602117  0.90495782  0.23012017     0.15200
H159        H  0.40379850  0.02516890  0.26409246     0.13400
H160        H  0.40439430  0.97437055  0.26273948     0.13400
H161        H  0.59802667  0.02787539  0.24736338     0.13400
H162        H  0.59855201  0.97738485  0.24856113     0.13400
H163        H  0.49990658  0.02412220  0.25539485     0.26700
H164        H  0.50028901  0.98013146  0.25176023     0.26700
O165        O  0.73402678  0.79673924  0.24993527    -0.87800
C166        C  0.73919559  0.74588419  0.30988577     0.88200
Mg167      Mg  0.70863369  0.78971886  0.21736157     1.58100
O168        O  0.79235814  0.74545756  0.26682874    -0.87500
O169        O  0.77501841  0.80419383  0.25796703    -0.74900
C170        C  0.73199015  0.66923906  0.17831258     0.93300
O171        O  0.68992175  0.76002492  0.27341999    -0.74700
O172        O  0.71343155  0.68553429  0.17941079    -0.82200
Mg173      Mg  0.71680828  0.79283424  0.28796242     1.58000
C174        C  0.82176830  0.67488574  0.24051492     0.93200
O175        O  0.74005976  0.82655918  0.30740168    -0.80400
H176        H  0.82122049  0.76420406  0.24891053    -0.05800
C177        C  0.73828460  0.68842474  0.25318568     0.88100
O178        O  0.74227904  0.77442945  0.19250606    -0.75000
O179        O  0.74636267  0.76515596  0.29752801    -0.87700
O180        O  0.81725522  0.68653949  0.26193635    -0.80500
C181        C  0.81188816  0.73325130  0.33248091     0.93300
C182        C  0.76100533  0.82890032  0.32054029     0.93200
Mg183      Mg  0.77539310  0.70591828  0.21108837     1.58000
O184        O  0.75276535  0.67208889  0.19156612    -0.80500
O185        O  0.80203711  0.73853783  0.22592549    -0.74700
O186        O  0.80208529  0.75539792  0.32750366    -0.80500
O187        O  0.68510394  0.82177834  0.27782242    -0.82200
O188        O  0.68966665  0.74199481  0.17221792    -0.80600
C189        C  0.80600720  0.74979644  0.24755207     0.87600
O190        O  0.74552094  0.73311982  0.20173690    -0.87700
O191        O  0.75824758  0.70101797  0.24905617    -0.87800
O192        O  0.71746353  0.69290381  0.24081264    -0.74900
Mg193      Mg  0.78594057  0.77789801  0.29239815     1.58000
O194        O  0.80878883  0.71380943  0.31748797    -0.82200
H195        H  0.75443434  0.82324784  0.23025870    -0.06000
O196        O  0.70006331  0.75172757  0.23287607    -0.87500
H197        H  0.67114596  0.73338566  0.25115959    -0.05800
H198        H  0.76758091  0.75006938  0.17465712    -0.06000
C199        C  0.68630961  0.74787097  0.25218800     0.87600
C200        C  0.75424856  0.80883674  0.24552072     0.88200
C201        C  0.75221979  0.75219076  0.18881946     0.88200
H202        H  0.73836003  0.67372873  0.26817159    -0.05900
O203        O  0.74904945  0.72361356  0.30607556    -0.75000
Mg204      Mg  0.70629109  0.71952047  0.20687920     1.58000
H205        H  0.72348231  0.74787329  0.32367608    -0.06000
C206        C  0.67025765  0.82246297  0.25806684     0.93200
O207        O  0.68182701  0.78315551  0.18291389    -0.82200
C208        C  0.67883298  0.76377997  0.16789692     0.93300
O209        O  0.77916269  0.81219518  0.31929764    -0.82200
Mg210      Mg  0.78301731  0.70742412  0.28210083     1.58200
O211        O  0.67436976  0.80878862  0.23787708    -0.80500
O212        O  0.80741406  0.67770458  0.22060152    -0.82200
N213        N  0.95762397  0.72943148  0.49923245    -0.36100
N214        N  0.99482722  0.72647267  0.45712421    -0.56600
N215        N  0.03663138  0.72865643  0.49577618    -0.36100
N216        N  0.99923164  0.72787389  0.53792296    -0.56600
C217        C  0.94182813  0.72330092  0.47909295     0.27500
C218        C  0.94418052  0.72493616  0.52132886     0.27500
C219        C  0.04996826  0.72294067  0.47382285     0.27500
C220        C  0.05227158  0.72298804  0.51624202     0.27500
C221        C  0.97301489  0.73116614  0.44319385     0.36100
C222        C  0.01514776  0.73111508  0.44113302     0.36100
C223        C  0.97905604  0.73471815  0.55327115     0.36100
C224        C  0.02106389  0.73319400  0.55156068     0.36100
C225        C  0.91811950  0.71470164  0.48850541    -0.21300
C226        C  0.91966341  0.71555580  0.51516544    -0.21300
C227        C  0.07429412  0.71344735  0.48040096    -0.21300
C228        C  0.07569531  0.71334078  0.50711041    -0.21300
C229        C  0.97946858  0.73841632  0.41809113    -0.22400
C230        C  0.00618695  0.73847820  0.41680519    -0.22400
C231        C  0.98805899  0.74436855  0.57676313    -0.22400
C232        C  0.01467780  0.74347216  0.57565716    -0.22400
C233        C  0.94745492  0.72755656  0.45257628    -0.17800
C234        C  0.95265492  0.73133508  0.54670000    -0.17800
C235        C  0.04657023  0.72791068  0.54278354    -0.17700
C236        C  0.04157738  0.72777949  0.44803183    -0.17700
H237        H  0.90128870  0.70882781  0.47734089     0.15200
H238        H  0.90426804  0.71029516  0.52847137     0.15200
H239        H  0.08955862  0.70736089  0.46728492     0.15200
H240        H  0.09224185  0.70707513  0.51844544     0.15200
H241        H  0.96631895  0.74309917  0.40236050     0.13400
H242        H  0.01767184  0.74330507  0.39987422     0.13400
H243        H  0.97668345  0.75150574  0.59294504     0.13400
H244        H  0.02775426  0.74999663  0.59078075     0.13400
H245        H  0.97511758  0.73941635  0.49801891     0.26700
H246        H  0.01922697  0.73881269  0.49657326     0.26700
O247        O  0.22291128  0.71078227  0.72988577    -0.87800
C248        C  0.20261028  0.78748147  0.73418177     0.88200
Mg249      Mg  0.23249126  0.68770967  0.76366622     1.58100
O250        O  0.26583922  0.77588288  0.71079031    -0.87500
O251        O  0.24014911  0.72262766  0.69285822    -0.74900
C252        C  0.31856759  0.75794885  0.82938267     0.93300
O253        O  0.19322977  0.74007980  0.77579964    -0.74700
O254        O  0.29982623  0.74263322  0.83449984    -0.82200
Mg255      Mg  0.18753537  0.73318217  0.73185783     1.58000
C256        C  0.32715874  0.81899550  0.74096939     0.93200
O257        O  0.17622123  0.72758927  0.68838155    -0.80400
H258        H  0.28891041  0.75917545  0.68444598    -0.05800
C259        C  0.26224099  0.79232921  0.78898428     0.88100
O260        O  0.27610229  0.69301419  0.75661691    -0.75000
O261        O  0.20915984  0.76758765  0.72252011    -0.87700
O262        O  0.30485684  0.82292872  0.73113086    -0.80500
C263        C  0.23831138  0.83142985  0.68016072     0.93300
C264        C  0.17957820  0.73902404  0.66659435     0.93200
Mg265      Mg  0.30846527  0.76361787  0.76488854     1.58000
O266        O  0.32149368  0.76831372  0.80713353    -0.80500
O267        O  0.30239223  0.75705721  0.72139581    -0.74700
O268        O  0.22694628  0.80973959  0.67603432    -0.80500
O269        O  0.16411452  0.69712700  0.74208589    -0.82200
O270        O  0.27094455  0.68873362  0.82100508    -0.80600
C271        C  0.28588466  0.76427722  0.70461251     0.87600
O272        O  0.28648572  0.72992411  0.77477515    -0.87700
O273        O  0.27288017  0.78643605  0.76828293    -0.87800
O274        O  0.25643264  0.77533962  0.80585050    -0.74900
Mg275      Mg  0.23258963  0.76637879  0.68767895     1.58000
O276        O  0.25311986  0.83499080  0.69969470    -0.82200
H277        H  0.24011825  0.68548648  0.70597833    -0.06000
O278        O  0.23008574  0.72225106  0.78753070    -0.87500
H279        H  0.20634818  0.73942494  0.81301446    -0.05800
H280        H  0.31296838  0.70678606  0.75837252    -0.06000
C281        C  0.20978163  0.73382323  0.79304482     0.87600
C282        C  0.23433510  0.70535446  0.70947705     0.88200
C283        C  0.29281746  0.70977461  0.76343245     0.88200
H284        H  0.25700066  0.81235216  0.79245564    -0.05900
O285        O  0.21916149  0.80421161  0.74145044    -0.75000
Mg286      Mg  0.26408297  0.73174220  0.81034252     1.58000
H287        H  0.18239632  0.79026184  0.73911115    -0.06000
C288        C  0.16802727  0.67857466  0.75796482     0.93200
O289        O  0.24312152  0.66368067  0.79904260    -0.82200
C290        C  0.25935380  0.66715200  0.81742742     0.93300
O291        O  0.19762392  0.75556502  0.66304902    -0.82200
Mg292      Mg  0.26282396  0.81008098  0.73513550     1.58200
O293        O  0.18972101  0.67543232  0.76947821    -0.80500
O294        O  0.33235048  0.79914177  0.75464870    -0.82200
N295        N  0.49797983  0.95630038  0.75734053    -0.36100
N296        N  0.45868499  0.99694377  0.75821770    -0.56600
N297        N  0.49953508  0.03478331  0.76633804    -0.36100
N298        N  0.53867743  0.99375377  0.76732107    -0.56600
C299        C  0.47570044  0.94352950  0.76269483     0.27500
C300        C  0.51764766  0.94163686  0.76667338     0.27500
C301        C  0.47839812  0.05020023  0.76935602     0.27500
C302        C  0.52070765  0.04863915  0.77357866     0.27500
C303        C  0.44466044  0.97688969  0.74866814     0.36100
C304        C  0.44538605  0.01887263  0.75275667     0.36100
C305        C  0.55317167  0.97280850  0.76083234     0.36100
C306        C  0.55427616  0.01473563  0.76501962     0.36100
C307        C  0.48123751  0.92116260  0.77664136    -0.21300
C308        C  0.50778523  0.91985133  0.77893749    -0.21300
C309        C  0.48640398  0.07429291  0.77845815    -0.21300
C310        C  0.51297234  0.07330281  0.78109388    -0.21300
C311        C  0.42237441  0.98611990  0.73674865    -0.22400
C312        C  0.42263855  0.01265353  0.73967152    -0.22400
C313        C  0.57813587  0.98063457  0.75436541    -0.22400
C314        C  0.57893963  0.00704747  0.75750594    -0.22400
C315        C  0.45103459  0.95053719  0.75292750    -0.17800
C316        C  0.54419304  0.94686417  0.76259140    -0.17800
C317        C  0.54688459  0.04059924  0.77060971    -0.17700
C318        C  0.45264937  0.04397130  0.76143248    -0.17700
H319        H  0.46760812  0.90708150  0.78420513     0.15200
H320        H  0.51857276  0.90463267  0.78858720     0.15200
H321        H  0.47467135  0.09136731  0.78175647     0.15200
H322        H  0.52518122  0.08937137  0.78692714     0.15200
H323        H  0.40728599  0.97511138  0.72713877     0.13400
H324        H  0.40762212  0.02564477  0.73292521     0.13400
H325        H  0.59424956  0.96899270  0.74772386     0.13400
H326        H  0.59579271  0.01914627  0.75424540     0.13400
H327        H  0.49986781  0.97228155  0.74504094     0.26700
H328        H  0.49994079  0.01702389  0.75683900     0.26700
N329        N  0.26372633  0.53848207  0.99949917    -0.36100
N330        N  0.25571151  0.49912537  0.95914489    -0.56600
N331        N  0.25129544  0.45947935  0.99904626    -0.36100
N332        N  0.25488813  0.49885950  0.03924853    -0.56600
C333        C  0.26062625  0.55371531  0.97825550     0.27500
C334        C  0.25945046  0.55353059  0.02072079     0.27500
C335        C  0.24404520  0.44576001  0.97782495     0.27500
C336        C  0.24401827  0.44557875  0.02010730     0.27500
C337        C  0.26300899  0.51931183  0.94403986     0.36100
C338        C  0.25625968  0.47776414  0.94378217     0.36100
C339        C  0.26126282  0.51911432  0.05468498     0.36100
C340        C  0.25585096  0.47747902  0.05443712     0.36100
C341        C  0.25466216  0.57878380  0.98615974    -0.21300
C342        C  0.25403876  0.57867773  0.01289775    -0.21300
C343        C  0.23207405  0.42289123  0.98548581    -0.21300
C344        C  0.23204716  0.42278285  0.01216784    -0.21300
C345        C  0.26813219  0.51062905  0.91897597    -0.22400
C346        C  0.26370373  0.48437562  0.91880306    -0.22400
C347        C  0.26621716  0.51057175  0.07975759    -0.22400
C348        C  0.26286091  0.48416631  0.07957902    -0.22400
C349        C  0.26328408  0.54568292  0.95197144    -0.17800
C350        C  0.26082286  0.54539779  0.04697985    -0.17800
C351        C  0.24908607  0.45222388  0.04627741    -0.17700
C352        C  0.24933914  0.45248269  0.95176262    -0.17700
H353        H  0.25069566  0.59543312  0.97400143     0.15200
H354        H  0.24973954  0.59520428  0.02517269     0.15200
H355        H  0.22426450  0.40775619  0.97313156     0.15200
H356        H  0.22416420  0.40756913  0.02432643     0.15200
H357        H  0.27444733  0.52195034  0.90244058     0.13400
H358        H  0.26581769  0.47161357  0.90220535     0.13400
H359        H  0.27153125  0.52217740  0.09649143     0.13400
H360        H  0.26506781  0.47141376  0.09613820     0.13400
H361        H  0.27053673  0.51950542  0.99954850     0.26700
H362        H  0.26325365  0.47570924  0.99915311     0.26700
N363        N  0.75372521  0.45813455  0.99838183    -0.36100
N364        N  0.75077286  0.49738837  0.95853371    -0.56600
N365        N  0.74037842  0.53686640  0.99867234    -0.36100
N366        N  0.74780830  0.49742534  0.03870812    -0.56600
C367        C  0.76162003  0.44440624  0.97743545     0.27500
C368        C  0.76095485  0.44459284  0.01962806     0.27500
C369        C  0.74456507  0.55215033  0.97761108     0.27500
C370        C  0.74221450  0.55207254  0.02019210     0.27500
C371        C  0.74941350  0.47596511  0.94333111     0.36100
C372        C  0.74384863  0.51760257  0.94336223     0.36100
C373        C  0.74619752  0.47574600  0.05344941     0.36100
C374        C  0.73939264  0.51724302  0.05375207     0.36100
C375        C  0.77410253  0.42195892  0.98540638    -0.21300
C376        C  0.77380351  0.42213296  0.01209153    -0.21300
C377        C  0.74852546  0.57750254  0.98588845    -0.21300
C378        C  0.74695903  0.57745675  0.01265852    -0.21300
C379        C  0.74166427  0.48252964  0.91843671    -0.22400
C380        C  0.73805674  0.50888808  0.91845472    -0.22400
C381        C  0.73679117  0.48178213  0.07793651    -0.22400
C382        C  0.73247965  0.50807048  0.07814088    -0.22400
C383        C  0.75623154  0.45073668  0.95138772    -0.17800
C384        C  0.75419564  0.45078043  0.04546201    -0.17800
C385        C  0.73948615  0.54371460  0.04639791    -0.17700
C386        C  0.74431728  0.54397710  0.95114783    -0.17700
H387        H  0.78231151  0.40688779  0.97325173     0.15200
H388        H  0.78171284  0.40715240  0.02452038     0.15200
H389        H  0.75243008  0.59433818  0.97395832     0.15200
H390        H  0.74941856  0.59419687  0.02515334     0.15200
H391        H  0.73889022  0.46970227  0.90198676     0.13400
H392        H  0.73173990  0.52027763  0.90196535     0.13400
H393        H  0.73348888  0.46864937  0.09400938     0.13400
H394        H  0.72512617  0.51916189  0.09443006     0.13400
H395        H  0.74107572  0.47382712  0.99815536     0.26700
H396        H  0.73458771  0.51757237  0.99825108     0.26700
O397        O  0.72651018  0.78921425  0.77202838    -0.87800
C398        C  0.71132146  0.71136538  0.76618689     0.88200
Mg399      Mg  0.73559172  0.81353152  0.73936115     1.58100
O400        O  0.77296955  0.72711499  0.79138159    -0.87500
O401        O  0.74363561  0.77853283  0.80943826    -0.74900
C402        C  0.82379232  0.74718944  0.67310715     0.93300
O403        O  0.69936285  0.75872530  0.72405965    -0.74700
O404        O  0.80576696  0.76360313  0.66918996    -0.82200
Mg405      Mg  0.69259237  0.76414341  0.76763699     1.58000
C406        C  0.83699025  0.68673903  0.76200930     0.93200
O407        O  0.67911861  0.76766296  0.80962833    -0.80400
H408        H  0.79544175  0.74445051  0.81793952    -0.05800
C409        C  0.77000847  0.71089700  0.71361325     0.88100
O410        O  0.77950157  0.81015614  0.74661511    -0.75000
O411        O  0.71661294  0.73183758  0.77747872    -0.87700
O412        O  0.81561949  0.68310839  0.77386058    -0.80500
C413        C  0.74718152  0.67001833  0.82040201     0.93300
C414        C  0.68252728  0.75780965  0.83201536     0.93200
Mg415      Mg  0.81511696  0.74052451  0.73719129     1.58000
O416        O  0.82643021  0.73527767  0.69460282    -0.80500
O417        O  0.80930173  0.74664901  0.78107759    -0.74700
O418        O  0.73432796  0.69094202  0.82385203    -0.80500
O419        O  0.66666236  0.79813108  0.75769845    -0.82200
O420        O  0.77362756  0.81556556  0.68224198    -0.80600
C421        C  0.79266696  0.73929162  0.79774655     0.87600
O422        O  0.79180798  0.77395905  0.72828325    -0.87700
O423        O  0.78086105  0.71668840  0.73425423    -0.87800
O424        O  0.76371878  0.72801125  0.69701490    -0.74900
Mg425      Mg  0.73838792  0.73453105  0.81353386     1.58000
O426        O  0.76366930  0.66748714  0.80219208    -0.82200
H427        H  0.74096336  0.81563621  0.79657999    -0.06000
O428        O  0.73515793  0.77950479  0.71484423    -0.87500
H429        H  0.71344028  0.76257563  0.68746843    -0.05800
H430        H  0.81697464  0.79803620  0.74548780    -0.06000
C431        C  0.71582050  0.76719100  0.70784137     0.87600
C432        C  0.73682202  0.79539866  0.79282851     0.88200
C433        C  0.79706089  0.79419365  0.74003526     0.88200
H434        H  0.76517383  0.69081517  0.70986966    -0.05900
O435        O  0.72885922  0.69535122  0.75976384    -0.75000
Mg436      Mg  0.76952718  0.77206214  0.69277127     1.58000
H437        H  0.69138566  0.70740013  0.76091422    -0.06000
C438        C  0.67067415  0.81847462  0.74437901     0.93200
O439        O  0.74435422  0.83874992  0.70430187    -0.82200
C440        C  0.76035636  0.83621687  0.68561317     0.93300
O441        O  0.70191327  0.74341295  0.83735474    -0.82200
Mg442      Mg  0.77260167  0.69266560  0.76736228     1.58200
O443        O  0.69272097  0.82389840  0.73460536    -0.80500
O444        O  0.84021191  0.70539102  0.74616713    -0.82200
N445        N  0.76243806  0.96138528  0.50067573    -0.36100
N446        N  0.75459810  0.00173702  0.54026716    -0.56600
N447        N  0.75112310  0.04070331  0.49980572    -0.36100
N448        N  0.75435939  0.00032357  0.46020422    -0.56600
C449        C  0.75776114  0.94677672  0.52208154     0.27500
C450        C  0.75851998  0.94605622  0.47955946     0.27500
C451        C  0.74405489  0.05478580  0.52088767     0.27500
C452        C  0.74303668  0.05387312  0.47853989     0.27500
C453        C  0.76136233  0.98160249  0.55565091     0.36100
C454        C  0.75641366  0.02330790  0.55520017     0.36100
C455        C  0.76209407  0.98001630  0.44542312     0.36100
C456        C  0.75567101  0.02159074  0.44481900     0.36100
C457        C  0.75104377  0.92182364  0.51441851    -0.21300
C458        C  0.75165874  0.92134480  0.48763003    -0.21300
C459        C  0.73140518  0.07712856  0.51294740    -0.21300
C460        C  0.73067746  0.07652018  0.48628115    -0.21300
C461        C  0.76756519  0.99048514  0.58037994    -0.22400
C462        C  0.76438101  0.01689172  0.58009180    -0.22400
C463        C  0.76839676  0.98841927  0.42063280    -0.22400
C464        C  0.76447115  0.01474189  0.42028563    -0.22400
C465        C  0.76015769  0.95517822  0.54829869    -0.17800
C466        C  0.76134914  0.95373209  0.45325075    -0.17800
C467        C  0.74789223  0.04685027  0.45236313    -0.17700
C468        C  0.74961442  0.04852635  0.54705148    -0.17700
H469        H  0.74599850  0.90562285  0.52679552     0.15200
H470        H  0.74723546  0.90475555  0.47547624     0.15200
H471        H  0.72332821  0.09226997  0.52508665     0.15200
H472        H  0.72191788  0.09115865  0.47403374     0.15200
H473        H  0.77370090  0.97915576  0.59698288     0.13400
H474        H  0.76750385  0.02984381  0.59638095     0.13400
H475        H  0.77504686  0.97677010  0.40442653     0.13400
H476        H  0.76783622  0.02730243  0.40379700     0.13400
H477        H  0.77004083  0.98006322  0.50052613     0.26700
H478        H  0.76330157  0.02468482  0.49985366     0.26700
O479        O  0.73492158  0.28554430  0.22288039    -0.87800
C480        C  0.73936309  0.20866341  0.20335652     0.88200
Mg481      Mg  0.76881406  0.30883342  0.23160485     1.58100
O482        O  0.71580491  0.22140274  0.26621942    -0.87500
O483        O  0.69776408  0.27407350  0.24005481    -0.74900
C484        C  0.83566183  0.23726731  0.31495621     0.93300
O485        O  0.78034239  0.25643533  0.19132157    -0.74700
O486        O  0.84003871  0.25314258  0.29648456    -0.82200
Mg487      Mg  0.73640894  0.26299007  0.18744392     1.58000
C488        C  0.74477369  0.17912288  0.32866039     0.93200
O489        O  0.69345688  0.26868313  0.17696313    -0.80400
H490        H  0.69024845  0.23903161  0.28951397    -0.05800
C491        C  0.79295185  0.20344119  0.26130993     0.88100
O492        O  0.76300065  0.30363462  0.27540317    -0.75000
O493        O  0.72777777  0.22874320  0.20949354    -0.87700
O494        O  0.73360477  0.17519999  0.30693027    -0.80500
C495        C  0.68502415  0.16602308  0.23922750     0.93300
C496        C  0.67166266  0.25732292  0.17977969     0.93200
Mg497      Mg  0.77101362  0.23293684  0.30761779     1.58000
O498        O  0.81360948  0.22663425  0.31841893    -0.80500
O499        O  0.72741124  0.24039316  0.30251366    -0.74700
O500        O  0.68187274  0.18685158  0.22619691    -0.80500
O501        O  0.74512975  0.29891139  0.16410052    -0.82200
O502        O  0.82847778  0.30674856  0.26577358    -0.80600
C503        C  0.71021418  0.23345068  0.28623690     0.87600
O504        O  0.78092900  0.26648145  0.28503014    -0.87700
O505        O  0.77284654  0.20957036  0.27285232    -0.87800
O506        O  0.80962740  0.22026123  0.25452984    -0.74900
Mg507      Mg  0.69274711  0.23023162  0.23257194     1.58000
O508        O  0.70361017  0.16312978  0.25520521    -0.82200
H509        H  0.71121552  0.31112613  0.23994165    -0.06000
O510        O  0.79219629  0.27393168  0.22823342    -0.87500
H511        H  0.81772011  0.25797805  0.20371549    -0.05800
H512        H  0.76584714  0.28977946  0.31218384    -0.06000
C513        C  0.79769977  0.26293558  0.20760813     0.87600
C514        C  0.71455940  0.29119641  0.23426011     0.88200
C515        C  0.77016139  0.28677454  0.29183150     0.88200
H516        H  0.79600619  0.18334136  0.25608266    -0.05900
O517        O  0.74592141  0.19191128  0.22020697    -0.75000
Mg518      Mg  0.81558747  0.26393273  0.26126994     1.58000
H519        H  0.74465226  0.20560953  0.18324402    -0.06000
C520        C  0.76097968  0.31751509  0.16744222     0.93200
O521        O  0.80444273  0.33345676  0.24151154    -0.82200
C522        C  0.82423843  0.32897911  0.25567869     0.93300
O523        O  0.66782361  0.24050681  0.19746124    -0.82200
Mg524      Mg  0.73916794  0.18678468  0.26409744     1.58200
O525        O  0.77349874  0.32070990  0.18860670    -0.80500
O526        O  0.76046600  0.19789325  0.33218106    -0.82200
N527        N  0.00174414  0.54325627  0.23618053    -0.36100
N528        N  0.96040034  0.50541978  0.24243821    -0.56600
N529        N  0.99873381  0.46469826  0.24852713    -0.36100
N530        N  0.04007128  0.50302487  0.24456791    -0.56600
C531        C  0.98107714  0.55902815  0.23979104     0.27500
C532        C  0.02331618  0.55762989  0.24016691     0.27500
C533        C  0.97675998  0.45341551  0.25765673     0.27500
C534        C  0.01916829  0.45214858  0.25937371     0.27500
C535        C  0.94726659  0.52579508  0.23243624     0.36100
C536        C  0.94553369  0.48415565  0.23843988     0.36100
C537        C  0.05556412  0.52227789  0.23575430     0.36100
C538        C  0.05402133  0.48089043  0.24311718     0.36100
C539        C  0.98964448  0.58388528  0.24568265    -0.21300
C540        C  0.01632691  0.58300527  0.24591111    -0.21300
C541        C  0.98338716  0.43377109  0.27486767    -0.21300
C542        C  0.01011084  0.43289270  0.27583118    -0.21300
C543        C  0.92402877  0.51752870  0.22176821    -0.22400
C544        C  0.92324316  0.49104177  0.22492723    -0.22400
C545        C  0.07946314  0.51241691  0.22846518    -0.22400
C546        C  0.07835271  0.48608239  0.23270268    -0.22400
C547        C  0.95494859  0.55185829  0.23554783    -0.17800
C548        C  0.04899665  0.54880525  0.23666988    -0.17800
C549        C  0.04566375  0.45690385  0.25363943    -0.17700
C550        C  0.95115927  0.45951313  0.24935221    -0.17700
H551        H  0.97801476  0.60108314  0.24880018     0.15200
H552        H  0.02906813  0.59935470  0.24939641     0.15200
H553        H  0.97042549  0.42137614  0.28578869     0.15200
H554        H  0.02154067  0.41964414  0.28745567     0.15200
H555        H  0.90925378  0.52926794  0.21255520     0.13400
H556        H  0.90791478  0.47850410  0.21795764     0.13400
H557        H  0.09597356  0.52309271  0.22104552     0.13400
H558        H  0.09387062  0.47249201  0.22880777     0.13400
H559        H  0.00123416  0.52453657  0.22859313     0.26700
H560        H  0.99975783  0.47825813  0.23353654     0.26700
O561        O  0.23405149  0.70502647  0.24709663    -0.87800
C562        C  0.24398767  0.75470473  0.18669098     0.88200
Mg563      Mg  0.20839826  0.71291038  0.27898233     1.58100
O564        O  0.29550302  0.75364751  0.23177684    -0.87500
O565        O  0.27507639  0.69598897  0.24105275    -0.74900
C566        C  0.23622434  0.83212975  0.31965464     0.93300
O567        O  0.19324679  0.74476226  0.22273971    -0.74700
O568        O  0.21755520  0.81593227  0.31875542    -0.82200
Mg569      Mg  0.21817215  0.71038628  0.20851341     1.58000
C570        C  0.32617316  0.82458109  0.25658794     0.93200
O571        O  0.23970839  0.67536201  0.18977500    -0.80400
H572        H  0.32389242  0.73486045  0.25040639    -0.05800
C573        C  0.24268273  0.81266835  0.24419020     0.88100
O574        O  0.24241445  0.72687547  0.30455622    -0.75000
O575        O  0.24979570  0.73566564  0.20002032    -0.87700
O576        O  0.32198784  0.81150503  0.23598374    -0.80500
C577        C  0.31767661  0.76340824  0.16657857     0.93300
C578        C  0.26124530  0.67113951  0.17820505     0.93200
Mg579      Mg  0.27890776  0.79491217  0.28658930     1.58000
O580        O  0.25666878  0.82942737  0.30583325    -0.80500
O581        O  0.30513170  0.76157007  0.27251333    -0.74700
O582        O  0.30693868  0.74169038  0.17156222    -0.80500
O583        O  0.18377134  0.68422409  0.21671794    -0.82200
O584        O  0.19082239  0.76010232  0.32587625    -0.80600
C585        C  0.30894718  0.74956441  0.25126091     0.87600
O586        O  0.24805292  0.76809254  0.29596672    -0.87700
O587        O  0.26226619  0.79945784  0.24825483    -0.87800
O588        O  0.22187018  0.80911634  0.25696401    -0.74900
Mg589      Mg  0.28842809  0.72092850  0.20666983     1.58000
O590        O  0.31454264  0.78325391  0.18107598    -0.82200
H591        H  0.25254198  0.67799269  0.26788295    -0.06000
O592        O  0.20172154  0.75134858  0.26404634    -0.87500
H593        H  0.17509065  0.77196593  0.24476228    -0.05800
H594        H  0.26914110  0.74950054  0.32275169    -0.06000
C595        C  0.18927898  0.75652033  0.24413373     0.87600
C596        C  0.25357712  0.69219769  0.25246181     0.88200
C597        C  0.25372895  0.74845097  0.30850878     0.88200
H598        H  0.24313296  0.82730107  0.22914746    -0.05900
O599        O  0.25426857  0.77673536  0.19051779    -0.75000
Mg600      Mg  0.20912717  0.78270474  0.29089374     1.58000
H601        H  0.22894869  0.75279387  0.17213961    -0.06000
C602        C  0.16891944  0.68318818  0.23641524     0.93200
O603        O  0.18083732  0.72026311  0.31233155    -0.82200
C604        C  0.17834643  0.73880052  0.32841030     0.93300
O605        O  0.28061331  0.68634966  0.18046827    -0.82200
Mg606      Mg  0.28778715  0.79159123  0.21558975     1.58200
O607        O  0.17404527  0.69499645  0.25753443    -0.80500
O608        O  0.31160201  0.82298708  0.27653174    -0.82200
N609        N  0.25763766  0.04192907  0.50048744    -0.36100
N610        N  0.25313775  0.00210664  0.53993033    -0.56600
N611        N  0.24216480  0.96368671  0.49949673    -0.36100
N612        N  0.25062827  0.00366669  0.45988304    -0.56600
C613        C  0.26704091  0.05458383  0.52150594     0.27500
C614        C  0.26496390  0.05559289  0.47934514     0.27500
C615        C  0.24601721  0.94814802  0.52045751     0.27500
C616        C  0.24535962  0.94891713  0.47786309     0.27500
C617        C  0.25247750  0.02356171  0.55513282     0.36100
C618        C  0.24427881  0.98231240  0.55468908     0.36100
C619        C  0.24881422  0.02548635  0.44539417     0.36100
C620        C  0.24228055  0.98397672  0.44465521     0.36100
C621        C  0.28069418  0.07640263  0.51366478    -0.21300
C622        C  0.27947162  0.07699182  0.48697434    -0.21300
C623        C  0.25136518  0.92314946  0.51198642    -0.21300
C624        C  0.25092484  0.92363255  0.48517601    -0.21300
C625        C  0.24320166  0.01747168  0.57960606    -0.22400
C626        C  0.23776834  0.99139338  0.57927304    -0.22400
C627        C  0.23922855  0.01965242  0.42089092    -0.22400
C628        C  0.23520358  0.99332241  0.42038295    -0.22400
C629        C  0.26139704  0.04827164  0.54751182    -0.17800
C630        C  0.25709853  0.05029258  0.45361450    -0.17800
C631        C  0.24273170  0.95748193  0.45175029    -0.17700
C632        C  0.24427366  0.95588508  0.54696110    -0.17700
H633        H  0.29011249  0.09066636  0.52593537     0.15200
H634        H  0.28791543  0.09174731  0.47462567     0.15200
H635        H  0.25543588  0.90630122  0.52384012     0.15200
H636        H  0.25450808  0.90722990  0.47251213     0.15200
H637        H  0.24065420  0.03044304  0.59597716     0.13400
H638        H  0.23000794  0.98040717  0.59541049     0.13400
H639        H  0.23566759  0.03288113  0.40495985     0.13400
H640        H  0.22791053  0.98231913  0.40399248     0.13400
H641        H  0.24401829  0.02701862  0.50072650     0.26700
H642        H  0.23555763  0.98275211  0.49995884     0.26700
O643        O  0.26702916  0.25250705  0.79593700    -0.87800
C644        C  0.25381770  0.31230136  0.74482866     0.88200
Mg645      Mg  0.29443125  0.22184446  0.78847950     1.58100
O646        O  0.20346914  0.26604655  0.74741637    -0.87500
O647        O  0.22561174  0.25796280  0.80420124    -0.74900
C648        C  0.26659666  0.18263679  0.66919385     0.93300
O649        O  0.30772669  0.27928854  0.75687560    -0.74700
O650        O  0.28562958  0.18443625  0.68483280    -0.82200
Mg651      Mg  0.28105473  0.29150338  0.79056539     1.58000
C652        C  0.17282319  0.23836782  0.67771687     0.93200
O653        O  0.25828926  0.30786725  0.82543066    -0.80400
H654        H  0.17628517  0.24653394  0.76709666    -0.05800
C655        C  0.25627449  0.25707078  0.68902451     0.88100
O656        O  0.26153593  0.19506425  0.77432771    -0.75000
O657        O  0.24926688  0.29867476  0.76404317    -0.87700
O658        O  0.17538697  0.25912915  0.69095383    -0.80500
C659        C  0.17803360  0.32987661  0.73702687     0.93300
C660        C  0.23721802  0.32036358  0.82875157     0.93200
Mg661      Mg  0.22264503  0.21237094  0.70704301     1.58000
O662        O  0.24549115  0.19510976  0.67262994    -0.80500
O663        O  0.19583915  0.22482643  0.74059661    -0.74700
O664        O  0.19131315  0.32688876  0.75780021    -0.80500
O665        O  0.31481319  0.28435834  0.81821722    -0.82200
O666        O  0.31303766  0.17839095  0.73994069    -0.80600
C667        C  0.19106527  0.24607789  0.75218291     0.87600
O668        O  0.25444937  0.20518039  0.73364613    -0.87700
O669        O  0.23662266  0.25139367  0.70157844    -0.87800
O670        O  0.27789736  0.24584489  0.69295525    -0.74900
Mg671      Mg  0.21081867  0.29198484  0.77914549     1.58000
O672        O  0.17996437  0.31428761  0.71791933    -0.82200
H673        H  0.24814277  0.23118446  0.82230853    -0.06000
O674        O  0.30013387  0.23802321  0.75019833    -0.87500
H675        H  0.32724473  0.25752263  0.73040640    -0.05800
H676        H  0.23521997  0.17655684  0.75147322    -0.06000
C677        C  0.31251223  0.25799897  0.74536639     0.87600
C678        C  0.24721430  0.24670221  0.80820753     0.88200
C679        C  0.24989280  0.19151246  0.75283650     0.88200
H680        H  0.25518396  0.27239690  0.67472678    -0.05900
O681        O  0.24201933  0.30882329  0.72341253    -0.75000
Mg682      Mg  0.29293601  0.21218829  0.71836746     1.58000
H683        H  0.26855998  0.32719424  0.74612099    -0.06000
C684        C  0.33115181  0.26589686  0.81953533     0.93200
O685        O  0.32300263  0.18882089  0.78080446    -0.82200
C686        C  0.32521303  0.17402088  0.76110662     0.93300
O687        O  0.21843102  0.31907492  0.81278050    -0.82200
Mg688      Mg  0.20908712  0.28202540  0.70936434     1.58200
O689        O  0.32825460  0.24482361  0.80684672    -0.80500
O690        O  0.18918602  0.21989697  0.67892610    -0.82200
N691        N  0.99556491  0.46014889  0.74375529    -0.36100
N692        N  0.03731807  0.49790144  0.74898161    -0.56600
N693        N  0.99924848  0.53805727  0.75890312    -0.36100
N694        N  0.95744607  0.50036932  0.75785014    -0.56600
C695        C  0.01663131  0.44433265  0.74485727     0.27500
C696        C  0.97447126  0.44567356  0.74990682     0.27500
C697        C  0.02145140  0.55024885  0.76594714     0.27500
C698        C  0.97934150  0.55209830  0.76870591     0.27500
C699        C  0.05061480  0.47791921  0.73842971     0.36100
C700        C  0.05280010  0.51901888  0.74702550     0.36100
C701        C  0.94119544  0.48081894  0.75119339     0.36100
C702        C  0.94317850  0.52245207  0.75740745     0.36100
C703        C  0.00877846  0.41952089  0.75165110    -0.21300
C704        C  0.98224222  0.42036563  0.75485956    -0.21300
C705        C  0.01552621  0.57198056  0.78076821    -0.21300
C706        C  0.98893276  0.57324903  0.78233278    -0.21300
C707        C  0.07456532  0.48642125  0.72952441    -0.22400
C708        C  0.07592354  0.51250185  0.73492141    -0.22400
C709        C  0.91644810  0.49048184  0.74683304    -0.22400
C710        C  0.91774791  0.51686595  0.75058426    -0.22400
C711        C  0.04265118  0.45171785  0.73949006    -0.17800
C712        C  0.94827255  0.45430879  0.74969249    -0.17800
C713        C  0.95276898  0.54734388  0.76406605    -0.17700
C714        C  0.04667783  0.54367548  0.75735500    -0.17700
H715        H  0.02088378  0.40256367  0.75424308     0.15200
H716        H  0.97007323  0.40414287  0.76034884     0.15200
H717        H  0.02895219  0.58581938  0.78916643     0.15200
H718        H  0.97788463  0.58816688  0.79219694     0.15200
H719        H  0.08965279  0.47493089  0.72045951     0.13400
H720        H  0.09217946  0.52509150  0.73063211     0.13400
H721        H  0.89929794  0.47974161  0.74114038     0.13400
H722        H  0.90177182  0.53030541  0.74838766     0.13400
H723        H  0.99524295  0.47909385  0.73679911     0.26700
H724        H  0.99757752  0.52318658  0.74530781     0.26700
N725        N  0.49854258  0.27123530  0.04191485    -0.36100
N726        N  0.53861804  0.26954750  0.00261763    -0.56600
N727        N  0.49806976  0.26387611  0.96315001    -0.36100
N728        N  0.45804755  0.26951309  0.00253608    -0.56600
C729        C  0.51962242  0.27924127  0.05545779     0.27500
C730        C  0.47738610  0.27886590  0.05547287     0.27500
C731        C  0.51926680  0.26793091  0.94815757     0.27500
C732        C  0.47700453  0.26856603  0.94811011     0.27500
C733        C  0.55362061  0.26648933  0.02401225     0.36100
C734        C  0.55336225  0.26262516  0.98201032     0.36100
C735        C  0.44320034  0.26634368  0.02396329     0.36100
C736        C  0.44287421  0.26363470  0.98190074     0.36100
C737        C  0.51174293  0.29268499  0.07745453    -0.21300
C738        C  0.48507340  0.29236539  0.07751203    -0.21300
C739        C  0.51159638  0.27515177  0.92335264    -0.21300
C740        C  0.48495716  0.27559412  0.92332854    -0.21300
C741        C  0.57804410  0.25765786  0.01689682    -0.22400
C742        C  0.57792308  0.25541055  0.99025250    -0.22400
C743        C  0.41844107  0.25840572  0.01689925    -0.22400
C744        C  0.41819063  0.25688973  0.99019220    -0.22400
C745        C  0.54562286  0.27266117  0.04961109    -0.17800
C746        C  0.45145926  0.27211608  0.04953391    -0.17800
C747        C  0.45080140  0.26550230  0.95568157    -0.17700
C748        C  0.54531743  0.26397648  0.95579769    -0.17700
H749        H  0.52394275  0.30148256  0.09216794     0.15200
H750        H  0.47273464  0.30085626  0.09227223     0.15200
H751        H  0.52391310  0.27962334  0.90691088     0.15200
H752        H  0.47284625  0.28050482  0.90685198     0.15200
H753        H  0.59429222  0.25319496  0.02943598     0.13400
H754        H  0.59402020  0.24905929  0.97831495     0.13400
H755        H  0.40217007  0.25432860  0.02954737     0.13400
H756        H  0.40176492  0.25139086  0.97825831     0.13400
H757        H  0.49857354  0.25822872  0.02641483     0.26700
H758        H  0.49801598  0.25571987  0.98162145     0.26700
N759        N  0.46026455  0.77114006  0.99663353    -0.36100
N760        N  0.49822426  0.77083204  0.03754154    -0.56600
N761        N  0.53916621  0.77646748  0.99887742    -0.36100
N762        N  0.50090157  0.77533160  0.95755221    -0.56600
C763        C  0.44600011  0.76200444  0.01677837     0.27500
C764        C  0.44764802  0.76465131  0.97447052     0.27500
C765        C  0.55254359  0.76805756  0.01989697     0.27500
C766        C  0.55396316  0.77160357  0.97763464     0.27500
C767        C  0.47660731  0.77254700  0.05234140     0.36100
C768        C  0.51865826  0.77462734  0.05356011     0.36100
C769        C  0.47977896  0.78212923  0.94354124     0.36100
C770        C  0.52176236  0.78502455  0.94493689     0.36100
C771        C  0.42417369  0.74942283  0.00725833    -0.21300
C772        C  0.42548011  0.75063360  0.98061918    -0.21300
C773        C  0.57609499  0.75773044  0.01195259    -0.21300
C774        C  0.57683358  0.75959674  0.98531495    -0.21300
C775        C  0.48333782  0.77731573  0.07800411    -0.22400
C776        C  0.51002152  0.77855825  0.07879230    -0.22400
C777        C  0.48718005  0.79680297  0.92221983    -0.22400
C778        C  0.51382496  0.79867979  0.92313570    -0.22400
C779        C  0.45135303  0.76664445  0.04337338    -0.17800
C780        C  0.45433131  0.77356580  0.94929660    -0.17800
C781        C  0.54768447  0.77923576  0.95189926    -0.17700
C782        C  0.54482359  0.77135255  0.04607287    -0.17700
H783        H  0.40869382  0.74036350  0.01811937     0.15200
H784        H  0.41135164  0.74238767  0.96741627     0.15200
H785        H  0.59126466  0.74958804  0.02397235     0.15200
H786        H  0.59251626  0.75263944  0.97322491     0.15200
H787        H  0.47048784  0.77866674  0.09459114     0.13400
H788        H  0.52169046  0.78109830  0.09611095     0.13400
H789        H  0.47477772  0.80541540  0.90761437     0.13400
H790        H  0.52590708  0.80890086  0.90931565     0.13400
H791        H  0.47577041  0.78405948  0.99798046     0.26700
H792        H  0.52223998  0.78752573  0.99927501     0.26700
C793        C  0.37368131  0.27926345  0.87097566     0.30300
C794        C  0.38114631  0.29100701  0.89446958    -0.36000
C795        C  0.40105877  0.27858463  0.90829572     0.16300
C796        C  0.41321890  0.25645004  0.89933919     0.22100
C797        C  0.40590202  0.24480440  0.87575275    -0.34100
C798        C  0.38566401  0.25697228  0.86215469     0.16200
O799        O  0.35392802  0.28624329  0.85621505    -0.26200
C800        C  0.35314015  0.26815433  0.83772709     0.06000
C801        C  0.37256692  0.24954253  0.84035655    -0.31000
O802        O  0.43161747  0.24832861  0.91520402    -0.22900
C803        C  0.43094985  0.26524132  0.93479144    -0.02900
C804        C  0.41232075  0.28449566  0.93154517    -0.17300
H805        H  0.37155291  0.30818706  0.90184318     0.20700
H806        H  0.41494332  0.22715498  0.86879671     0.19100
H807        H  0.37551442  0.23216557  0.82887827     0.19000
H808        H  0.40838964  0.30094368  0.94404347     0.14900
C809        C  0.09902188  0.41353463  0.74599653     0.30300
C810        C  0.12319411  0.40664613  0.75660614    -0.36000
C811        C  0.13519076  0.38464970  0.74588018     0.16300
C812        C  0.12431068  0.37059200  0.72579702     0.22100
C813        C  0.10004789  0.37748520  0.71518426    -0.34100
C814        C  0.08784393  0.39931122  0.72619479     0.16200
O815        O  0.08450831  0.43328682  0.75332169    -0.26200
C816        C  0.06351275  0.43170923  0.73828147     0.06000
C817        C  0.06447700  0.41087958  0.72096457    -0.31000
O818        O  0.13849911  0.35020979  0.71933218    -0.22900
C819        C  0.15867383  0.35106917  0.73558771    -0.02900
C820        C  0.15758545  0.37212309  0.75257802    -0.17300
H821        H  0.13185770  0.41748167  0.77243019     0.20700
H822        H  0.09112014  0.36634024  0.69972901     0.19100
H823        H  0.05029815  0.40542008  0.70641075     0.19000
H824        H  0.17089573  0.37697986  0.76813883     0.14900
C825        C  0.27860331  0.13113187  0.62618545     0.30300
C826        C  0.29062373  0.10826296  0.61730474    -0.36000
C827        C  0.27759450  0.09479150  0.59740069     0.16300
C828        C  0.25446520  0.10339100  0.58690582     0.22100
C829        C  0.24249314  0.12613414  0.59577976    -0.34100
C830        C  0.25543005  0.13949835  0.61564943     0.16200
O831        O  0.28646935  0.14602377  0.64559552    -0.26200
C832        C  0.26807952  0.16414150  0.64739981     0.06000
C833        C  0.24837360  0.16103595  0.62917233    -0.31000
O834        O  0.24568336  0.08807296  0.56837597    -0.22900
C835        C  0.26323765  0.06923985  0.56707558    -0.02900
C836        C  0.28357244  0.07230834  0.58464568    -0.17300
H837        H  0.30862089  0.10126273  0.62559440     0.20700
H838        H  0.22419205  0.13281480  0.58790007     0.19100
H839        H  0.23070292  0.17222006  0.62712024     0.19000
H840        H  0.30039896  0.06001252  0.58726187     0.14900
C841        C  0.36218065  0.75275763  0.11589682     0.30300
C842        C  0.37790502  0.73785641  0.09923380    -0.36000
C843        C  0.39763799  0.75135318  0.08605840     0.16300
C844        C  0.40152103  0.77770339  0.08894985     0.22100
C845        C  0.38581418  0.79256371  0.10556182    -0.34100
C846        C  0.36616838  0.77908927  0.11878175     0.16200
O847        O  0.34367126  0.74394326  0.13134273    -0.26200
C848        C  0.33569670  0.76492263  0.14429272     0.06000
C849        C  0.34895618  0.78733738  0.13712445    -0.31000
O850        O  0.42099781  0.78640708  0.07474706    -0.22900
C851        C  0.42972145  0.76539529  0.06247056    -0.02900
C852        C  0.41610998  0.74295439  0.06900553    -0.17300
H853        H  0.37523809  0.71712885  0.09704368     0.20700
H854        H  0.38891494  0.81316973  0.10825684     0.19100
H855        H  0.34714436  0.80662872  0.14527712     0.19000
H856        H  0.41925121  0.72339191  0.06199267     0.14900
C857        C  0.24668551  0.88559888  0.36098099     0.30300
C858        C  0.26050806  0.90659288  0.37163305    -0.36000
C859        C  0.25062204  0.91701200  0.39485605     0.16300
C860        C  0.22870561  0.90740513  0.40692283     0.22100
C861        C  0.21472135  0.88658251  0.39611795    -0.34100
C862        C  0.22451447  0.87626349  0.37278299     0.16200
O863        O  0.25325597  0.87202102  0.34017522    -0.26200
C864        C  0.23489237  0.85387384  0.33840592     0.06000
C865        C  0.21643504  0.85570414  0.35813710    -0.31000
O866        O  0.22316067  0.91987852  0.42871093    -0.22900
C867        C  0.24167567  0.93785352  0.43050376    -0.02900
C868        C  0.25929091  0.93692968  0.40998322    -0.17300
H869        H  0.27797845  0.91404901  0.36264351     0.20700
H870        H  0.19756352  0.87877543  0.40540507     0.19100
H871        H  0.20020674  0.84289100  0.36190954     0.19000
H872        H  0.27597668  0.94928296  0.40671246     0.14900
C873        C  0.12079777  0.63733797  0.22280244     0.30300
C874        C  0.10758520  0.61889324  0.20764430    -0.36000
C875        C  0.09348309  0.60009781  0.22143258     0.16300
C876        C  0.09233162  0.59964341  0.24824993     0.22100
C877        C  0.10497826  0.61841003  0.26334551    -0.34100
C878        C  0.11903003  0.63714857  0.24958955     0.16200
O879        O  0.13752359  0.65476229  0.21425170    -0.26200
C880        C  0.14621611  0.66603548  0.23586292     0.06000
C881        C  0.13504935  0.65613302  0.25836284    -0.31000
O882        O  0.07785454  0.58056955  0.25713765    -0.22900
C883        C  0.06973211  0.56851987  0.23577065    -0.02900
C884        C  0.07871905  0.57982751  0.21295591    -0.17300
H885        H  0.10886866  0.61871620  0.18664329     0.20700
H886        H  0.10431540  0.61812577  0.28437880     0.19100
H887        H  0.13989828  0.66060375  0.27836246     0.19000
H888        H  0.07406586  0.57455538  0.19311938     0.14900
C889        C  0.59940052  0.27638920  0.09219734     0.30300
C890        C  0.62500605  0.28191878  0.09968611    -0.36000
C891        C  0.63212115  0.27405289  0.12480682     0.16300
C892        C  0.61532367  0.26142278  0.14144586     0.22100
C893        C  0.58960893  0.25612190  0.13404485    -0.34100
C894        C  0.58247811  0.26406501  0.10891881     0.16200
O895        O  0.58889511  0.28127752  0.06929464    -0.26200
C896        C  0.56484036  0.27200989  0.07131482     0.06000
C897        C  0.55985597  0.26104600  0.09559058    -0.31000
O898        O  0.62663840  0.25440142  0.16341360    -0.22900
C899        C  0.65091589  0.26295089  0.16088684    -0.02900
C900        C  0.65534419  0.27540987  0.13730436    -0.17300
H901        H  0.63858711  0.29128036  0.08666307     0.20700
H902        H  0.57627617  0.24598564  0.14673996     0.19100
H903        H  0.54222722  0.25171858  0.10222301     0.19000
H904        H  0.67341127  0.28324922  0.12995556     0.14900
C905        C  0.86142147  0.38621926  0.25914779     0.30300
C906        C  0.86626907  0.41308052  0.25863383    -0.36000
C907        C  0.89249365  0.42055590  0.25722830     0.16300
C908        C  0.91249989  0.40289175  0.25586218     0.22100
C909        C  0.90774759  0.37608822  0.25728858    -0.34100
C910        C  0.88159422  0.36859973  0.25923023     0.16200
O911        O  0.83840169  0.37481560  0.25857232    -0.26200
C912        C  0.84392676  0.34955325  0.25903159     0.06000
C913        C  0.87049179  0.34459907  0.25966941    -0.31000
O914        O  0.93534819  0.41410201  0.25285629    -0.22900
C915        C  0.93019591  0.43947319  0.25266503    -0.02900
C916        C  0.90370722  0.44448487  0.25597060    -0.17300
H917        H  0.85067701  0.42715394  0.25870619     0.20700
H918        H  0.92332295  0.36202246  0.25638697     0.19100
H919        H  0.88018438  0.32597602  0.25886934     0.19000
H920        H  0.89389877  0.46297575  0.25748317     0.14900
C921        C  0.73299759  0.12496635  0.36824841     0.30300
C922        C  0.72618834  0.09907930  0.37371635    -0.36000
C923        C  0.73453519  0.08938344  0.39785811     0.16300
C924        C  0.74848128  0.10420762  0.41532696     0.22100
C925        C  0.75489237  0.13007992  0.41005583    -0.34100
C926        C  0.74668371  0.13971377  0.38599631     0.16200
O927        O  0.72925335  0.13736635  0.34608925    -0.26200
C928        C  0.74066817  0.16032000  0.34981248     0.06000
C929        C  0.75164805  0.16286113  0.37436705    -0.31000
O930        O  0.75512304  0.09120466  0.43629188    -0.22900
C931        C  0.74535931  0.06761388  0.43242038    -0.02900
C932        C  0.73213096  0.06538134  0.40883724    -0.17300
H933        H  0.71583791  0.08712610  0.35983268     0.20700
H934        H  0.76618352  0.14167843  0.42349720     0.19100
H935        H  0.76305755  0.17882526  0.38193626     0.19000
H936        H  0.72220778  0.04857608  0.40100476     0.14900
C937        C  0.62488359  0.76634526  0.86675098     0.30300
C938        C  0.59788565  0.76656607  0.87029091    -0.36000
C939        C  0.58922130  0.77271811  0.89536587     0.16300
C940        C  0.60589728  0.77876972  0.91543439     0.22100
C941        C  0.63296480  0.77816530  0.91199535    -0.34100
C942        C  0.64170114  0.77141963  0.88703681     0.16200
O943        O  0.63712399  0.76103058  0.84493362    -0.26200
C944        C  0.66211504  0.76219065  0.85137739     0.06000
C945        C  0.66621953  0.76836109  0.87737899    -0.31000
O946        O  0.59354498  0.78314721  0.93745440    -0.22900
C947        C  0.56857154  0.77942166  0.93166611    -0.02900
C948        C  0.56487644  0.77282825  0.90560289    -0.17300
H949        H  0.58458289  0.76184319  0.85468493     0.20700
H950        H  0.64626197  0.78212879  0.92780962     0.19100
H951        H  0.68451448  0.77077308  0.88745789     0.19000
H952        H  0.54705314  0.76741823  0.89585173     0.14900
C953        C  0.87526228  0.63227587  0.77567394     0.30300
C954        C  0.88019997  0.60731895  0.78545800    -0.36000
C955        C  0.90280266  0.59514984  0.77634018     0.16300
C956        C  0.91951284  0.60684611  0.75896406     0.22100
C957        C  0.91465926  0.63186421  0.74929192    -0.34100
C958        C  0.89197042  0.64396834  0.75828679     0.16200
O959        O  0.85438190  0.64637243  0.78019336    -0.26200
C960        C  0.85775698  0.66745519  0.76562686     0.06000
C961        C  0.88086837  0.66704576  0.75160293    -0.31000
O962        O  0.93912288  0.59171118  0.75252367    -0.22900
C963        C  0.93481759  0.56988619  0.76570300    -0.02900
C964        C  0.91257249  0.57099633  0.78102987    -0.17300
H965        H  0.86696755  0.59777826  0.79870747     0.20700
H966        H  0.92737394  0.64100268  0.73527107     0.19100
H967        H  0.88775039  0.68101183  0.73748407     0.19000
H968        H  0.90472979  0.55611982  0.79362396     0.14900
C969        C  0.77149461  0.87526259  0.63095398     0.30300
C970        C  0.78185377  0.88144044  0.60648154    -0.36000
C971        C  0.77133098  0.90334389  0.59421034     0.16300
C972        C  0.75198603  0.91819892  0.60529165     0.22100
C973        C  0.74166559  0.91208491  0.62980199    -0.34100
C974        C  0.75220196  0.89016920  0.64207531     0.16200
O975        O  0.77768869  0.85497367  0.64529634    -0.26200
C976        C  0.76234363  0.85697575  0.66602537     0.06000
C977        C  0.74606732  0.87854505  0.66506440    -0.31000
O978        O  0.74513983  0.93790846  0.59048306    -0.22900
C979        C  0.76019220  0.93561443  0.56954115    -0.02900
C980        C  0.77691940  0.91445145  0.57082915    -0.17300
H981        H  0.79687594  0.86980443  0.59750861     0.20700
H982        H  0.72638489  0.92351832  0.63860540     0.19100
H983        H  0.73108471  0.88413770  0.67871953     0.19000
H984        H  0.79141856  0.90850487  0.55681399     0.14900
C985        C  0.75363061  0.35836908  0.11381635     0.30300
C986        C  0.74140533  0.36769791  0.09136215    -0.36000
C987        C  0.74902673  0.39245075  0.08316063     0.16300
C988        C  0.76749495  0.40705348  0.09604651     0.22100
C989        C  0.77991805  0.39759856  0.11839255    -0.34100
C990        C  0.77221581  0.37283127  0.12668107     0.16200
O991        O  0.74818584  0.33648713  0.12583396    -0.26200
C992        C  0.76351692  0.33683236  0.14664754     0.06000
C993        C  0.77899505  0.35893856  0.14814700    -0.31000
O994        O  0.77141919  0.42982372  0.08502099    -0.22900
C995        C  0.75527888  0.42965745  0.06483107    -0.02900
C996        C  0.74084888  0.40695398  0.06272847    -0.17300
H997        H  0.72659267  0.35665421  0.08130513     0.20700
H998        H  0.79421735  0.40894068  0.12884635     0.19100
H999        H  0.79222566  0.36456869  0.16351312     0.19000
H1000       H  0.72668398  0.40185097  0.04802623     0.14900
C1001       C  0.73512850  0.59597698  0.90753147     0.30300
C1002       C  0.72344804  0.61850848  0.89770431    -0.36000
C1003       C  0.73313620  0.62762489  0.87392548     0.16300
C1004       C  0.75293952  0.61541404  0.86061627     0.22100
C1005       C  0.76464142  0.59283862  0.87042852    -0.34100
C1006       C  0.75501664  0.58381431  0.89430756     0.16200
O1007       O  0.72901330  0.58407971  0.92941064    -0.26200
C1008       C  0.74519068  0.56397147  0.93026596     0.06000
C1009       C  0.76199498  0.56303429  0.90902009    -0.31000
O1010       O  0.75975027  0.62805902  0.83937366    -0.22900
C1011       C  0.74406469  0.64861749  0.83907972    -0.02900
C1012       C  0.72707040  0.64927890  0.86007741    -0.17300
H1013       H  0.70805237  0.62841231  0.90802477     0.20700
H1014       H  0.78039493  0.58322050  0.86036934     0.19100
H1015       H  0.77686887  0.54878333  0.90486165     0.19000
H1016       H  0.71311012  0.66417950  0.86503374     0.14900
C1017       C  0.24800676  0.36046158  0.88243475     0.30300
C1018       C  0.26237392  0.37074020  0.90318048    -0.36000
C1019       C  0.25417757  0.39493637  0.91253205     0.16300
C1020       C  0.23330186  0.40821033  0.90220358     0.22100
C1021       C  0.21869608  0.39774545  0.88166427    -0.34100
C1022       C  0.22680987  0.37343878  0.87239639     0.16200
O1023       O  0.25360366  0.33921099  0.86930463    -0.26200
C1024       C  0.23556320  0.33835717  0.85081151     0.06000
C1025       C  0.21820296  0.35901679  0.85194662    -0.31000
O1026       O  0.22919340  0.43063991  0.91393478    -0.22900
C1027       C  0.24763775  0.43159111  0.93203946    -0.02900
C1028       C  0.26372678  0.40994608  0.93205653    -0.17300
H1029       H  0.27912159  0.36082967  0.91110583     0.20700
H1030       H  0.20239774  0.40799467  0.87325088     0.19100
H1031       H  0.20281610  0.36377847  0.83842313     0.19000
H1032       H  0.27978561  0.40575568  0.94496594     0.14900
C1033       C  0.25133725  0.61839921  0.13606784     0.30300
C1034       C  0.23692164  0.59901769  0.12336673    -0.36000
C1035       C  0.24876704  0.58751102  0.10165074     0.16300
C1036       C  0.27308242  0.59463989  0.09289591     0.22100
C1037       C  0.28758632  0.61386109  0.10573163    -0.34100
C1038       C  0.27581179  0.62524374  0.12756565     0.16200
O1039       O  0.24340309  0.63276348  0.15581090    -0.26200
C1040       C  0.26314025  0.64890774  0.16018866     0.06000
C1041       C  0.28390257  0.64494996  0.14329084    -0.31000
O1042       O  0.28038064  0.58135699  0.07217485    -0.22900
C1043       C  0.26053523  0.56540559  0.06774118    -0.02900
C1044       C  0.24031808  0.56838908  0.08542364    -0.17300
H1045       H  0.21767397  0.59352360  0.12976679     0.20700
H1046       H  0.30662752  0.61970137  0.09902855     0.19100
H1047       H  0.30170639  0.65602802  0.14181503     0.19000
H1048       H  0.22223736  0.55771001  0.08632410     0.14900
C1049       C  0.37209051  0.12614349  0.77501682     0.30300
C1050       C  0.39046998  0.11243931  0.78991031    -0.36000
C1051       C  0.40544446  0.09395635  0.77642993     0.16300
C1052       C  0.40262427  0.08940022  0.75013690     0.22100
C1053       C  0.38413200  0.10285210  0.73537428    -0.34100
C1054       C  0.36910268  0.12114677  0.74882266     0.16200
O1055       O  0.35664539  0.14498579  0.78323101    -0.26200
C1056       C  0.34343409  0.15187866  0.76201060     0.06000
C1057       C  0.35040757  0.13760706  0.74012186    -0.31000
O1058       O  0.41885659  0.07165046  0.74132893    -0.22900
C1059       C  0.43232376  0.06455101  0.76222336    -0.02900
C1060       C  0.42467245  0.07770324  0.78467409    -0.17300
H1061       H  0.39310921  0.11611235  0.81046608     0.20700
H1062       H  0.38177332  0.09944848  0.71473895     0.19100
H1063       H  0.34336528  0.13972867  0.72040423     0.19000
H1064       H  0.43219625  0.07550837  0.80420153     0.14900
C1065       C  0.61426372  0.85638523  0.74472617     0.30300
C1066       C  0.58760797  0.86224933  0.74348724    -0.36000
C1067       C  0.58060858  0.88749407  0.75127303     0.16300
C1068       C  0.59847613  0.90526585  0.76033594     0.22100
C1069       C  0.62498792  0.89963275  0.76104310    -0.34100
C1070       C  0.63205186  0.87489827  0.75247423     0.16200
O1071       O  0.62533397  0.83375839  0.73969444    -0.26200
C1072       C  0.65051533  0.83842462  0.74341048     0.06000
C1073       C  0.65574853  0.86367344  0.75115683    -0.31000
O1074       O  0.58796994  0.92765549  0.76653300    -0.22900
C1075       C  0.56297954  0.92482300  0.76082180    -0.02900
C1076       C  0.55728442  0.90002573  0.75123100    -0.17300
H1077       H  0.57339992  0.84821859  0.73690163     0.20700
H1078       H  0.63918378  0.91370077  0.76758571     0.19100
H1079       H  0.67422917  0.87196249  0.75683737     0.19000
H1080       H  0.53889010  0.89260594  0.74425754     0.14900
C1081       C  0.39620011  0.77421775  0.91301239     0.30300
C1082       C  0.36912218  0.77441961  0.90974939    -0.36000
C1083       C  0.36006310  0.76934013  0.88453433     0.16300
C1084       C  0.37662639  0.76497944  0.86390231     0.22100
C1085       C  0.40367946  0.76432694  0.86727111    -0.34100
C1086       C  0.41268180  0.76890939  0.89258934     0.16200
O1087       O  0.40870742  0.77753839  0.93508033    -0.26200
C1088       C  0.43359655  0.77395354  0.92899908     0.06000
C1089       C  0.43716818  0.76841503  0.90268521    -0.31000
O1090       O  0.36408282  0.76096644  0.84196119    -0.22900
C1091       C  0.33915821  0.76230360  0.84863265    -0.02900
C1092       C  0.33539548  0.76725784  0.87494373    -0.17300
H1093       H  0.35604280  0.77786304  0.92584953     0.20700
H1094       H  0.41675334  0.76019480  0.85132679     0.19100
H1095       H  0.45500638  0.76367178  0.89263635     0.19000
H1096       H  0.31724002  0.76919364  0.88535253     0.14900
C1097       C  0.13014499  0.62298664  0.76912285     0.30300
C1098       C  0.12554920  0.59681186  0.77551401    -0.36000
C1099       C  0.10145734  0.58658283  0.76766431     0.16300
C1100       C  0.08315032  0.60125553  0.75473333     0.22100
C1101       C  0.08765532  0.62734135  0.74853605    -0.34100
C1102       C  0.11173364  0.63745834  0.75611863     0.16200
O1103       O  0.15197070  0.63599937  0.77276582    -0.26200
C1104       C  0.14743576  0.65905311  0.76189527     0.06000
C1105       C  0.12264479  0.66103857  0.75136456    -0.31000
O1106       O  0.06203987  0.58800755  0.74909063    -0.22900
C1107       C  0.06675581  0.56437683  0.75830932    -0.02900
C1108       C  0.09103310  0.56229769  0.77015098    -0.17300
H1109       H  0.13997353  0.58509457  0.78531647     0.20700
H1110       H  0.07354110  0.63881281  0.73801539     0.19100
H1111       H  0.11439541  0.67702049  0.74050405     0.19000
H1112       H  0.09947668  0.54552551  0.77956658     0.14900
C1113       C  0.24593896  0.88534671  0.63893635     0.30300
C1114       C  0.25807879  0.90793530  0.62967676    -0.36000
C1115       C  0.25075731  0.91616205  0.60470911     0.16300
C1116       C  0.23253640  0.90331372  0.58983239     0.22100
C1117       C  0.22047589  0.88058794  0.59904658    -0.34100
C1118       C  0.22791854  0.87222686  0.62402553     0.16200
O1119       O  0.25090788  0.87351886  0.66117962    -0.26200
C1120       C  0.23588923  0.85244382  0.66064963     0.06000
C1121       C  0.22110875  0.85071365  0.63797275    -0.31000
O1122       O  0.22817053  0.91496702  0.56730374    -0.22900
C1123       C  0.24381252  0.93561695  0.56779082    -0.02900
C1124       C  0.25861880  0.93694944  0.59046770    -0.17300
H1125       H  0.27247432  0.91823925  0.64104137     0.20700
H1126       H  0.20637853  0.87007617  0.58750614     0.19100
H1127       H  0.20822361  0.83518623  0.63205951     0.19000
H1128       H  0.27268915  0.95158778  0.59594365     0.14900
C1129       C  0.27398738  0.62757384  0.87091811     0.30300
C1130       C  0.28445563  0.62136713  0.89542704    -0.36000
C1131       C  0.27457027  0.59883789  0.90727008     0.16300
C1132       C  0.25565838  0.58369353  0.89577902     0.22100
C1133       C  0.24544053  0.58973908  0.87132267    -0.34100
C1134       C  0.25540982  0.61200780  0.85944866     0.16200
O1135       O  0.27896036  0.64854870  0.85701241    -0.26200
C1136       C  0.26349516  0.64613578  0.83633488     0.06000
C1137       C  0.24861677  0.62364299  0.83677940    -0.31000
O1138       O  0.24901244  0.56364912  0.91009494    -0.22900
C1139       C  0.26388900  0.56566782  0.93112263    -0.02900
C1140       C  0.28024979  0.58726069  0.93047331    -0.17300
H1141       H  0.29894224  0.63343150  0.90475242     0.20700
H1142       H  0.23051324  0.57800049  0.86228200     0.19100
H1143       H  0.23369835  0.61762239  0.82321444     0.19000
H1144       H  0.29444407  0.59325559  0.94480181     0.14900
C1145       C  0.38190497  0.85910067  0.73813109     0.30300
C1146       C  0.40833858  0.86549880  0.73713886    -0.36000
C1147       C  0.41433292  0.89181693  0.74073983     0.16300
C1148       C  0.39578821  0.91045538  0.74571123     0.22100
C1149       C  0.36931700  0.90421379  0.74595807    -0.34100
C1150       C  0.36325323  0.87803719  0.74164332     0.16200
O1151       O  0.37189043  0.83553587  0.73676710    -0.26200
C1152       C  0.34647711  0.83966764  0.73859392     0.06000
C1153       C  0.34000266  0.86568740  0.74149808    -0.31000
O1154       O  0.40596029  0.93348184  0.75040493    -0.22900
C1155       C  0.43142733  0.92973260  0.74802759    -0.02900
C1156       C  0.43757258  0.90417464  0.74141582    -0.17300
H1157       H  0.42321052  0.85094760  0.73424224     0.20700
H1158       H  0.35451562  0.91865432  0.74967245     0.19100
H1159       H  0.32097773  0.87405036  0.74464064     0.19000
H1160       H  0.45649528  0.89568496  0.73808360     0.14900
C1161       C  0.12510530  0.72318881  0.36811123     0.30300
C1162       C  0.10182031  0.71037788  0.37449388    -0.36000
C1163       C  0.08790983  0.72052627  0.39569673     0.16300
C1164       C  0.09658106  0.74158046  0.40985743     0.22100
C1165       C  0.11974749  0.75446913  0.40337371    -0.34100
C1166       C  0.13348290  0.74453514  0.38199262     0.16200
O1167       O  0.14051380  0.71770441  0.34835015    -0.26200
C1168       C  0.15896109  0.73585536  0.34940144     0.06000
C1169       C  0.15556990  0.75308282  0.37000922    -0.31000
O1170       O  0.08112425  0.74727624  0.42948936    -0.22900
C1171       C  0.06202297  0.72993288  0.42773589    -0.02900
C1172       C  0.06517608  0.71277588  0.40702175    -0.17300
H1173       H  0.09491215  0.69381317  0.36352548     0.20700
H1174       H  0.12651656  0.77119061  0.41418420     0.19100
H1175       H  0.16708747  0.77000264  0.37481257     0.19000
H1176       H  0.05303222  0.69643808  0.40176740     0.14900
C1177       C  0.91185210  0.72956506  0.60147735     0.30300
C1178       C  0.90301509  0.72121703  0.62586947    -0.36000
C1179       C  0.87886232  0.73103461  0.63374662     0.16300
C1180       C  0.86450163  0.74802196  0.61877947     0.22100
C1181       C  0.87337614  0.75641327  0.59448550    -0.34100
C1182       C  0.89741402  0.74652898  0.58657091     0.16200
O1183       O  0.93349574  0.72231706  0.58985206    -0.26200
C1184       C  0.93274932  0.73474290  0.56718922     0.06000
C1185       C  0.91088295  0.75027091  0.56424170    -0.31000
O1186       O  0.84281205  0.75532215  0.63020832    -0.22900
C1187       C  0.84319566  0.74274806  0.65274436    -0.02900
C1188       C  0.86512910  0.72729490  0.65599159    -0.17300
H1189       H  0.91409989  0.70792836  0.63778890     0.20700
H1190       H  0.86230109  0.76971155  0.58257139     0.19100
H1191       H  0.90547718  0.76209329  0.54772023     0.19000
H1192       H  0.87055522  0.71572162  0.67268839     0.14900
C1193       C  0.10458030  0.73501209  0.57899839     0.30300
C1194       C  0.12977746  0.74409244  0.58430493    -0.36000
C1195       C  0.13996925  0.73773207  0.60883273     0.16300
C1196       C  0.12634571  0.72334120  0.62687088     0.22100
C1197       C  0.10123140  0.71412544  0.62149210    -0.34100
C1198       C  0.09101929  0.72056664  0.59701705     0.16200
O1199       O  0.09099973  0.73938370  0.55765188    -0.26200
C1200       C  0.06834076  0.72764908  0.56201361     0.06000
C1201       C  0.06740461  0.71545439  0.58618898    -0.31000
O1202       O  0.13893631  0.72093836  0.64910947    -0.22900
C1203       C  0.16095469  0.73396558  0.64534870    -0.02900
C1204       C  0.16268434  0.74474314  0.62056671    -0.17300
H1205       H  0.14045976  0.75579440  0.57050009     0.20700
H1206       H  0.09018617  0.70319539  0.63564169     0.19100
H1207       H  0.05151824  0.70457971  0.59461634     0.19000
H1208       H  0.17789872  0.75698023  0.61278897     0.14900
C1209       C  0.59589586  0.75666537  0.08882618     0.30300
C1210       C  0.61513849  0.74114999  0.10018399    -0.36000
C1211       C  0.63225139  0.75384830  0.11715132     0.16300
C1212       C  0.63044001  0.77996989  0.12285715     0.22100
C1213       C  0.61120992  0.79554025  0.11140747    -0.34100
C1214       C  0.59416338  0.78285652  0.09427764     0.16200
O1215       O  0.57833767  0.74891239  0.07186074    -0.26200
C1216       C  0.56514128  0.77040164  0.06639490     0.06000
C1217       C  0.57406614  0.79211561  0.07977926    -0.31000
O1218       O  0.64751889  0.78738878  0.14053037    -0.22900
C1219       C  0.66058435  0.76576454  0.14598102    -0.02900
C1220       C  0.65199701  0.74436225  0.13186082    -0.17300
H1221       H  0.61664415  0.72059195  0.09610107     0.20700
H1222       H  0.60951259  0.81603471  0.11572232     0.19100
H1223       H  0.56720080  0.81191437  0.07836818     0.19000
H1224       H  0.65831589  0.72438590  0.13342881     0.14900
C1225       C  0.87412334  0.63258332  0.25051477     0.30300
C1226       C  0.89294356  0.61909524  0.26485880    -0.36000
C1227       C  0.90800338  0.60122587  0.25085444     0.16300
C1228       C  0.90475574  0.59681572  0.22456318     0.22100
C1229       C  0.88586730  0.61023295  0.21024894    -0.34100
C1230       C  0.87086158  0.62816015  0.22423502     0.16200
O1231       O  0.85770751  0.64998004  0.25969626    -0.26200
C1232       C  0.84378245  0.65680430  0.23900113     0.06000
C1233       C  0.85109395  0.64381535  0.21642830    -0.31000
O1234       O  0.92084597  0.57906803  0.21546532    -0.22900
C1235       C  0.93462267  0.57213972  0.23620598    -0.02900
C1236       C  0.92743145  0.58520632  0.25875038    -0.17300
H1237       H  0.89561649  0.62225976  0.28549530     0.20700
H1238       H  0.88301353  0.60687720  0.18966813     0.19100
H1239       H  0.84275287  0.64539158  0.19717186     0.19000
H1240       H  0.93532085  0.58300578  0.27813243     0.14900
C1241       C  0.75272057  0.88196081  0.36277059     0.30300
C1242       C  0.73899200  0.90215791  0.37488929    -0.36000
C1243       C  0.75030385  0.91264839  0.39741267     0.16300
C1244       C  0.77359127  0.90397793  0.40744300     0.22100
C1245       C  0.78750951  0.88393507  0.39512728    -0.34100
C1246       C  0.77616648  0.87341986  0.37253796     0.16200
O1247       O  0.74482331  0.86827336  0.34250411    -0.26200
C1248       C  0.76352542  0.85077010  0.33902909     0.06000
C1249       C  0.78360073  0.85319102  0.35708817    -0.31000
O1250       O  0.78041814  0.91657705  0.42884589    -0.22900
C1251       C  0.76123950  0.93358166  0.43244154    -0.02900
C1252       C  0.74202293  0.93194085  0.41348433    -0.17300
H1253       H  0.72050316  0.90891547  0.36753643     0.20700
H1254       H  0.80570844  0.87677543  0.40281607     0.19100
H1255       H  0.80046619  0.84087743  0.35939959     0.19000
H1256       H  0.72467726  0.94364766  0.41165498     0.14900
C1257       C  0.74224137  0.61542428  0.13751970     0.30300
C1258       C  0.75636746  0.59469698  0.12678640    -0.36000
C1259       C  0.74668112  0.58425883  0.10346826     0.16300
C1260       C  0.72460911  0.59353007  0.09143111     0.22100
C1261       C  0.71027833  0.61405678  0.10236969    -0.34100
C1262       C  0.71992658  0.62446609  0.12576216     0.16200
O1263       O  0.74881110  0.62919948  0.15819359    -0.26200
C1264       C  0.73033259  0.64720732  0.15993694     0.06000
C1265       C  0.71174611  0.64505969  0.14033742    -0.31000
O1266       O  0.71931896  0.58109813  0.06951423    -0.22900
C1267       C  0.73818564  0.56350209  0.06758512    -0.02900
C1268       C  0.75575520  0.56466186  0.08816909    -0.17300
H1269       H  0.77399787  0.58754616  0.13571489     0.20700
H1270       H  0.69303850  0.62166801  0.09307374     0.19100
H1271       H  0.69548790  0.65779624  0.13648441     0.19000
H1272       H  0.77263961  0.55259093  0.09142026     0.14900
C1273       C  0.89477228  0.71635396  0.41028172     0.30300
C1274       C  0.87764419  0.70169184  0.39485261    -0.36000
C1275       C  0.85845682  0.71573222  0.38149030     0.16300
C1276       C  0.85609413  0.74234801  0.38342016     0.22100
C1277       C  0.87300539  0.75696840  0.39908852    -0.34100
C1278       C  0.89239078  0.74297643  0.41216349     0.16200
O1279       O  0.91467304  0.70733700  0.42373674    -0.26200
C1280       C  0.92529786  0.72850907  0.43414375     0.06000
C1281       C  0.91217364  0.75119981  0.42775267    -0.31000
O1282       O  0.83826402  0.75174929  0.36760208    -0.22900
C1283       C  0.82906995  0.73093392  0.35527894    -0.02900
C1284       C  0.84081054  0.70794657  0.36328162    -0.17300
H1285       H  0.87966632  0.68088829  0.39274368     0.20700
H1286       H  0.87171583  0.77790453  0.40026672     0.19100
H1287       H  0.91654309  0.77082606  0.43387886     0.19000
H1288       H  0.83800982  0.68860319  0.35553147     0.14900
C1289       C  0.40483081  0.90838963  0.26159136     0.30300
C1290       C  0.38708620  0.89573786  0.27793671    -0.36000
C1291       C  0.37309250  0.87523753  0.26671151     0.16300
C1292       C  0.37631313  0.86775432  0.24114012     0.22100
C1293       C  0.39383229  0.88060811  0.22469501    -0.34100
C1294       C  0.40781678  0.90110434  0.23593229     0.16200
O1295       O  0.42024882  0.92772387  0.26819423    -0.26200
C1296       C  0.43325375  0.93294552  0.24647930     0.06000
C1297       C  0.42612855  0.91716577  0.22568159    -0.31000
O1298       O  0.36094143  0.84837401  0.23458244    -0.22900
C1299       C  0.34769724  0.84332481  0.25622138    -0.02900
C1300       C  0.35441326  0.85947937  0.27685293    -0.17300
H1301       H  0.38443456  0.90143839  0.29801929     0.20700
H1302       H  0.39635690  0.87503180  0.20455763     0.19100
H1303       H  0.43361229  0.91737033  0.20601890     0.19000
H1304       H  0.34620541  0.86001264  0.29621562     0.14900
C1305       C  0.63198447  0.12531230  0.22622657     0.30300
C1306       C  0.60970814  0.11648264  0.21313000    -0.36000
C1307       C  0.59460590  0.09803292  0.22636593     0.16300
C1308       C  0.60082834  0.08919163  0.25089299     0.22100
C1309       C  0.62336832  0.09750179  0.26369321    -0.34100
C1310       C  0.63863892  0.11558895  0.25032033     0.16200
O1311       O  0.64799775  0.14374980  0.21836131    -0.26200
C1312       C  0.66540591  0.14536348  0.23745091     0.06000
C1313       C  0.66064519  0.12812003  0.25768448    -0.31000
O1314       O  0.58406442  0.07203413  0.25969147    -0.22900
C1315       C  0.56688145  0.06955172  0.24050815    -0.02900
C1316       C  0.57263420  0.08512553  0.21913719    -0.17300
H1317       H  0.60437018  0.12369546  0.19411301     0.20700
H1318       H  0.62856571  0.09045398  0.28281788     0.19100
H1319       H  0.67090140  0.12638716  0.27598257     0.19000
H1320       H  0.56273551  0.08598816  0.20059479     0.14900
C1321       C  0.58966512  0.90122001  0.23806183     0.30300
C1322       C  0.59991127  0.87873174  0.22673284    -0.36000
C1323       C  0.61827487  0.86532513  0.24162953     0.16300
C1324       C  0.62628684  0.87355721  0.26590060     0.22100
C1325       C  0.61590815  0.89600894  0.27731060    -0.34100
C1326       C  0.59733624  0.90930847  0.26248635     0.16200
O1327       O  0.57188915  0.91642476  0.22776102    -0.26200
C1328       C  0.56793340  0.93440052  0.24589435     0.06000
C1329       C  0.58326367  0.93096028  0.26791731    -0.31000
O1330       O  0.64482865  0.85882260  0.27564827    -0.22900
C1331       C  0.64856043  0.84087102  0.25741415    -0.02900
C1332       C  0.63244151  0.84388078  0.23592034    -0.17300
H1333       H  0.59404521  0.87219513  0.20760223     0.20700
H1334       H  0.62199676  0.90272315  0.29630738     0.19100
H1335       H  0.58350888  0.94246296  0.28554101     0.19000
H1336       H  0.63224967  0.83274340  0.21805424     0.14900
C1337       C  0.61782853  0.25131762  0.86689098     0.30300
C1338       C  0.59700652  0.23824246  0.87869368    -0.36000
C1339       C  0.58625269  0.25027045  0.90069972     0.16300
C1340       C  0.59540140  0.27351901  0.91046970     0.22100
C1341       C  0.61592050  0.28677274  0.89843577    -0.34100
C1342       C  0.62659335  0.27481114  0.87639146     0.16200
O1343       O  0.63179276  0.24289106  0.84708177    -0.26200
C1344       C  0.64956193  0.26136927  0.84368932     0.06000
C1345       C  0.64713502  0.28176644  0.86129227    -0.31000
O1346       O  0.58278701  0.28107553  0.93146095    -0.22900
C1347       C  0.56524773  0.26249343  0.93511496    -0.02900
C1348       C  0.56640274  0.24286450  0.91654414    -0.17300
H1349       H  0.58998573  0.21977535  0.87150203     0.20700
H1350       H  0.62330030  0.30496587  0.90596084     0.19100
H1351       H  0.65954224  0.29859834  0.86347966     0.19000
H1352       H  0.55420889  0.22582263  0.91490794     0.14900
C1353       C  0.87141944  0.36966866  0.73228309     0.30300
C1354       C  0.89448198  0.37944880  0.72159664    -0.36000
C1355       C  0.90492523  0.40148588  0.73376398     0.16300
C1356       C  0.89348013  0.41328295  0.75495550     0.22100
C1357       C  0.87040072  0.40345566  0.76572717    -0.34100
C1358       C  0.86000198  0.38129103  0.75359900     0.16200
O1359       O  0.85884007  0.34872042  0.72446944    -0.26200
C1360       C  0.83905595  0.34682796  0.74098876     0.06000
C1361       C  0.83885334  0.36655069  0.75957105    -0.31000
O1362       O  0.90688640  0.43351128  0.76338144    -0.22900
C1363       C  0.92729116  0.43450918  0.74745746    -0.02900
C1364       C  0.92694379  0.41511232  0.72861411    -0.17300
H1365       H  0.90383718  0.37029986  0.70513085     0.20700
H1366       H  0.86136938  0.41225555  0.78256477     0.19100
H1367       H  0.82548727  0.36917493  0.77559848     0.19000
H1368       H  0.94102951  0.41154309  0.71341656     0.14900
C1369       C  0.74500323  0.13897803  0.61856986     0.30300
C1370       C  0.75793912  0.13095122  0.59598132    -0.36000
C1371       C  0.75179838  0.10603198  0.58692861     0.16300
C1372       C  0.73434102  0.08994337  0.59937002     0.22100
C1373       C  0.72129040  0.09802945  0.62192534    -0.34100
C1374       C  0.72714097  0.12314215  0.63076208     0.16200
O1375       O  0.74888921  0.16091904  0.63117578    -0.26200
C1376       C  0.73297682  0.15935102  0.65146932     0.06000
C1377       C  0.71881543  0.13634956  0.65213218    -0.31000
O1378       O  0.73154142  0.06743529  0.58742004    -0.22900
C1379       C  0.74724418  0.06928048  0.56694505    -0.02900
C1380       C  0.76042158  0.09281309  0.56573545    -0.17300
H1381       H  0.77198092  0.14319809  0.58626579     0.20700
H1382       H  0.70757918  0.08561347  0.63189584     0.19100
H1383       H  0.70571896  0.12960889  0.66713799     0.19000
H1384       H  0.77410864  0.09926907  0.55114557     0.14900
C1385       C  0.77268603  0.36840644  0.87244596     0.30300
C1386       C  0.78306871  0.39254344  0.87964897    -0.36000
C1387       C  0.77089490  0.40499292  0.90059489     0.16300
C1388       C  0.75011942  0.39427714  0.91372883     0.22100
C1389       C  0.73961549  0.37024136  0.90641324    -0.34100
C1390       C  0.75166027  0.35790648  0.88534196     0.16200
O1391       O  0.78030913  0.35396934  0.85271289    -0.26200
C1392       C  0.76394013  0.33399260  0.85295808     0.06000
C1393       C  0.74566616  0.33542645  0.87281694    -0.31000
O1394       O  0.74204546  0.40902820  0.93301849    -0.22900
C1395       C  0.75760395  0.42960944  0.93197920    -0.02900
C1396       C  0.77595314  0.42821051  0.91222657    -0.17300
H1397       H  0.79929504  0.40114771  0.86943756     0.20700
H1398       H  0.72309002  0.36185124  0.91632406     0.19100
H1399       H  0.72964004  0.32239302  0.87671807     0.19000
H1400       H  0.79106493  0.44203974  0.90754929     0.14900
C1401       C  0.59756899  0.08448995  0.75807544     0.30300
C1402       C  0.61603456  0.09722471  0.74268868    -0.36000
C1403       C  0.63183300  0.11529557  0.75551361     0.16300
C1404       C  0.62953611  0.12073528  0.78168734     0.22100
C1405       C  0.61106614  0.10785940  0.79718174    -0.34100
C1406       C  0.59532081  0.08957825  0.78433726     0.16200
O1407       O  0.58084754  0.06694241  0.74990425    -0.26200
C1408       C  0.56760867  0.06060597  0.77114374     0.06000
C1409       C  0.57580972  0.07397438  0.79324088    -0.31000
O1410       O  0.64573069  0.13915818  0.78931170    -0.22900
C1411       C  0.65871887  0.14533014  0.76775730    -0.02900
C1412       C  0.65085720  0.13104166  0.74618464    -0.17300
H1413       H  0.61786975  0.09338786  0.72207758     0.20700
H1414       H  0.60898267  0.11194851  0.81772011     0.19100
H1415       H  0.56846221  0.07235705  0.81288455     0.19000
H1416       H  0.65752100  0.13272909  0.72629822     0.14900
C1417       C  0.39890554  0.27846334  0.09293640     0.30300
C1418       C  0.37439520  0.28669516  0.10151167    -0.36000
C1419       C  0.36720336  0.27875442  0.12658466     0.16300
C1420       C  0.38295463  0.26361750  0.14211186     0.22100
C1421       C  0.40750841  0.25548029  0.13358428    -0.34100
C1422       C  0.41472671  0.26350814  0.10856570     0.16200
O1423       O  0.40943519  0.28341427  0.07008544    -0.26200
C1424       C  0.43235311  0.27154367  0.07113713     0.06000
C1425       C  0.43663625  0.25880800  0.09461472    -0.31000
O1426       O  0.37178421  0.25731117  0.16430229    -0.22900
C1427       C  0.34864476  0.26874105  0.16309799    -0.02900
C1428       C  0.34476607  0.28240265  0.14007832    -0.17300
H1429       H  0.36170301  0.29823768  0.08937828     0.20700
H1430       H  0.41995643  0.24342724  0.14547320     0.19100
H1431       H  0.45347408  0.24766673  0.10044059     0.19000
H1432       H  0.32746274  0.29248553  0.13370921     0.14900
C1433       C  0.08309199  0.39983183  0.26051442     0.30300
C1434       C  0.08906940  0.37344595  0.25723786    -0.36000
C1435       C  0.11482928  0.36627968  0.26260262     0.16300
C1436       C  0.13357172  0.38387545  0.27028789     0.22100
C1437       C  0.12732842  0.41006152  0.27447127    -0.34100
C1438       C  0.10151483  0.41717074  0.26934850     0.16200
O1439       O  0.06093354  0.41123699  0.25445232    -0.26200
C1440       C  0.06516065  0.43627116  0.25951776     0.06000
C1441       C  0.08993486  0.44087723  0.26946209    -0.31000
O1442       O  0.15702447  0.37348720  0.27141100    -0.22900
C1443       C  0.15305600  0.34877396  0.26501344    -0.02900
C1444       C  0.12719515  0.34316022  0.25957768    -0.17300
H1445       H  0.07492116  0.35966256  0.25001742     0.20700
H1446       H  0.14183896  0.42414873  0.28021481     0.19100
H1447       H  0.09856710  0.45922883  0.27498806     0.19000
H1448       H  0.11904851  0.32501575  0.25274049     0.14900
C1449       C  0.26640281  0.09284098  0.40113108     0.30300
C1450       C  0.27563708  0.10083978  0.37680568    -0.36000
C1451       C  0.26891651  0.12608257  0.36931188     0.16300
C1452       C  0.25392219  0.14225437  0.38457763     0.22100
C1453       C  0.24477927  0.13431180  0.40895344    -0.34100
C1454       C  0.25166727  0.10913989  0.41651852     0.16200
O1455       O  0.27019691  0.06996824  0.41189927    -0.26200
C1456       C  0.25786069  0.07173195  0.43453148     0.06000
C1457       C  0.24592569  0.09563262  0.43843001    -0.31000
O1458       O  0.24868060  0.16444540  0.37306955    -0.22900
C1459       C  0.26068510  0.16255431  0.35026408    -0.02900
C1460       C  0.27368420  0.13915490  0.34687801    -0.17300
H1461       H  0.28702611  0.08817903  0.36447850     0.20700
H1462       H  0.23284144  0.14674036  0.42099859     0.19100
H1463       H  0.23463144  0.10199183  0.45499867     0.19000
H1464       H  0.28389549  0.13224948  0.32982874     0.14900
C1465       C  0.24685178  0.36241448  0.11805386     0.30300
C1466       C  0.26016927  0.37113148  0.09601042    -0.40000
C1467       C  0.25276582  0.39544016  0.08652158     0.16300
C1468       C  0.23356848  0.41028312  0.09791237     0.22100
C1469       C  0.22021175  0.40154298  0.12007907    -0.34100
C1470       C  0.22763499  0.37709643  0.12961407     0.16200
O1471       O  0.25156513  0.34074791  0.13065435    -0.26200
C1472       C  0.23521511  0.34135398  0.15063292     0.06000
C1473       C  0.21973990  0.36353137  0.15102156    -0.31000
O1474       O  0.22985054  0.43244599  0.08561835    -0.22900
C1475       C  0.24682117  0.43156979  0.06611157    -0.02900
C1476       C  0.26164771  0.40907542  0.06577941    -0.17300
H1477       H  0.27543498  0.35982103  0.08702223     0.20700
H1478       H  0.20528112  0.41306763  0.12934655     0.19100
H1479       H  0.20568580  0.36933529  0.16554517     0.19000
H1480       H  0.27658936  0.40355924  0.05205083     0.14900
C1481       C  0.37581258  0.13544030  0.24609037     0.30300
C1482       C  0.40110506  0.12982240  0.25456898    -0.36000
C1483       C  0.40979282  0.10440445  0.25017114     0.16300
C1484       C  0.39483411  0.08589704  0.23787376     0.22100
C1485       C  0.36928901  0.09134192  0.22990922    -0.34100
C1486       C  0.36041146  0.11668644  0.23466710     0.16200
O1487       O  0.36367789  0.15779907  0.24875176    -0.26200
C1488       C  0.34006999  0.15329741  0.23923187     0.06000
C1489       C  0.33679655  0.12798940  0.23036022    -0.31000
O1490       O  0.40729909  0.06373151  0.23477493    -0.22900
C1491       C  0.43055098  0.06794003  0.24541928    -0.02900
C1492       C  0.43291237  0.09287179  0.25574491    -0.17300
H1493       H  0.41314747  0.14425822  0.26400246     0.20700
H1494       H  0.35718593  0.07682963  0.22068114     0.19100
H1495       H  0.31945717  0.11914980  0.22240063     0.19000
H1496       H  0.44944818  0.10141070  0.26554760     0.14900
C1497       C  0.87153735  0.22292918  0.37068713     0.30300
C1498       C  0.87490391  0.21474652  0.39648613    -0.36000
C1499       C  0.89850933  0.22160635  0.40819923     0.16300
C1500       C  0.91748029  0.23546575  0.39534755     0.22100
C1501       C  0.91419906  0.24349043  0.36949715    -0.34100
C1502       C  0.89056832  0.23671463  0.35780580     0.16200
O1503       O  0.85033061  0.22015582  0.35666355    -0.26200
C1504       C  0.85579854  0.23230389  0.33450846     0.06000
C1505       C  0.88064333  0.24288298  0.33403775    -0.31000
O1506       O  0.93794744  0.23991077  0.41001650    -0.22900
C1507       C  0.93208766  0.22884820  0.43266256    -0.02900
C1508       C  0.90777522  0.21699502  0.43258596    -0.17300
H1509       H  0.85995648  0.20422093  0.40684974     0.20700
H1510       H  0.92886169  0.25463266  0.35937555     0.19100
H1511       H  0.88947728  0.25465869  0.31903375     0.19000
H1512       H  0.89853515  0.20613062  0.44802273     0.14900
C1513       C  0.08632579  0.24546456  0.60195248     0.30300
C1514       C  0.09471643  0.25739165  0.62503044    -0.36000
C1515       C  0.11701207  0.24677085  0.63655863     0.16300
C1516       C  0.13006288  0.22577972  0.62618691     0.22100
C1517       C  0.12180546  0.21401874  0.60299660    -0.34100
C1518       C  0.09964564  0.22473792  0.59138035     0.16200
O1519       O  0.06580233  0.25198854  0.58806982    -0.26200
C1520       C  0.06623249  0.23542281  0.56820242     0.06000
C1521       C  0.08682905  0.21803384  0.56923167    -0.31000
O1522       O  0.15075061  0.21935520  0.63987117    -0.22900
C1523       C  0.15104093  0.23648281  0.65925768    -0.02900
C1524       C  0.13052436  0.25405548  0.65814380    -0.17300
H1525       H  0.08463627  0.27384848  0.63335360     0.20700
H1526       H  0.13205550  0.19775577  0.59450448     0.19100
H1527       H  0.09135021  0.20248161  0.55581400     0.19000
H1528       H  0.12661952  0.27029607  0.67092944     0.14900
C1529       C  0.91338735  0.23921659  0.60457245     0.30300
C1530       C  0.90587880  0.25062061  0.62819360    -0.36000
C1531       C  0.88409176  0.23967710  0.64034199     0.16300
C1532       C  0.87079852  0.21874572  0.63011873     0.22100
C1533       C  0.87837772  0.20728414  0.60653787    -0.34100
C1534       C  0.89992160  0.21847147  0.59419698     0.16200
O1535       O  0.93296324  0.24654312  0.58979243    -0.26200
C1536       C  0.93181304  0.23049798  0.56952242     0.06000
C1537       C  0.91165967  0.21260373  0.57120303    -0.31000
O1538       O  0.85010272  0.21261486  0.64391122    -0.22900
C1539       C  0.85003326  0.22990475  0.66317122    -0.02900
C1540       C  0.87080457  0.24716699  0.66198533    -0.17300
H1541       H  0.91597480  0.26721795  0.63624491     0.20700
H1542       H  0.86780010  0.19120241  0.59806883     0.19100
H1543       H  0.90674927  0.19726727  0.55766402     0.19000
H1544       H  0.87476973  0.26361340  0.67449276     0.14900
C1545       C  0.11160604  0.23894175  0.36022432     0.30300
C1546       C  0.08815501  0.24866870  0.36998483    -0.36000
C1547       C  0.08144979  0.24067859  0.39511584     0.16300
C1548       C  0.09668760  0.22420278  0.40976148     0.22100
C1549       C  0.12013553  0.21433025  0.39993490    -0.34100
C1550       C  0.12684752  0.22231675  0.37470417     0.16200
O1551       O  0.12236830  0.24529799  0.33786950    -0.26200
C1552       C  0.14478240  0.23249899  0.33786638     0.06000
C1553       C  0.14853155  0.21773063  0.36024823    -0.31000
O1554       O  0.08646801  0.21922919  0.43277254    -0.22900
C1555       C  0.06436560  0.23262934  0.43269860    -0.02900
C1556       C  0.06035807  0.24643788  0.40984046    -0.17300
H1557       H  0.07616024  0.26188861  0.35890410     0.20700
H1558       H  0.13240954  0.20157245  0.41125184     0.19100
H1559       H  0.16547896  0.20659530  0.36575982     0.19000
H1560       H  0.04396312  0.25853396  0.40470678     0.14900
loop_ 
_geom_bond_atom_site_label_1 
_geom_bond_atom_site_label_2 
_geom_bond_distance 
_geom_bond_site_symmetry_2 
_ccdc_geom_bond_type 
N1            C6   1.353       .  A
N1            C5   1.354   1_655  A
N1           H33   1.039       .  S
N2            C9   1.350       .  A
N2           C10   1.351       .  A
N3            C8   1.352       .  A
N3            C7   1.353   1_655  A
N3           H34   1.041       .  S
N4           C11   1.351       .  A
N4           C12   1.353       .  A
C5           C13   1.387       .  A
C5           C21   1.414       .  A
C6           C22   1.414       .  A
C6           C14   1.388       .  A
C7           C15   1.386       .  A
C7           C24   1.412       .  A
C8           C23   1.412       .  A
C8           C16   1.387       .  A
C9           C21   1.411       .  A
C9           C17   1.387       .  A
C10          C24   1.409       .  A
C10          C18   1.385       .  A
C11          C19   1.386       .  A
C11          C22   1.413       .  A
C12          C20   1.387       .  A
C12          C23   1.414       .  A
C13          C14   1.374   1_455  A
C13          H25   1.082       .  S
C14          H26   1.082       .  S
C15          C16   1.373   1_455  A
C15          H27   1.082       .  S
C16          H28   1.082       .  S
C17          C18   1.375       .  A
C17          H29   1.082       .  S
C18          H30   1.082       .  S
C19          C20   1.375       .  A
C19          H31   1.082       .  S
C20          H32   1.081       .  S
C21        C1520   1.480       .  S
C22        C1536   1.482       .  S
C23        C1507   1.487       .  S
C24        C1555   1.482       .  S
O35         Mg37   2.150       .  S
O35         Mg43   2.161       .  S
O35          C70   1.234       .  S
C36          H75   1.081       .  S
C36          O49   1.235       .  S
C36          O73   1.268       .  A
Mg37         O66   2.173       .  S
Mg37         O81   2.295       .  S
Mg37         O77   2.274       .  S
Mg37         O48   2.289       .  S
O38         Mg80   2.175       .  S
O38         Mg63   2.146       .  S
O38          C59   1.235       .  S
O39          C70   1.269       .  A
O39         Mg63   2.296       .  S
C40        C1427   1.472       .  S
C40          O42   1.272       .  A
C40          O54   1.275       .  A
O41          C69   1.269       .  A
O41         Mg43   2.294       .  S
O42         Mg74   2.267       .  S
Mg43         O49   2.137       .  S
Mg43         O57   2.240       .  S
Mg43         O45   2.299       .  S
C44        C1472   1.469       .  S
C44          O82   1.270       .  A
C44          O50   1.277       .  A
O45          C52   1.274       .  A
H46          C59   1.081       .  S
C47          H72   1.081       .  S
C47          O61   1.234       .  S
C47          O62   1.269       .  A
O48          C71   1.267       .  A
O49         Mg63   2.161       .  S
O50         Mg80   2.325       .  S
C51        C1443   1.469       .  S
C51          O64   1.275       .  A
C51          O56   1.273       .  A
C52        C1552   1.472       .  S
C52          O79   1.273       .  A
Mg53         O60   2.143       .  S
Mg53         O61   2.161       .  S
Mg53         O54   2.305       .  S
Mg53         O55   2.295       .  S
Mg53         O82   2.244       .  S
O55          C59   1.269       .  A
O56         Mg63   2.288       .  S
O57          C76   1.269       .  A
O58          C78   1.274       .  A
O58         Mg74   2.306       .  S
O60         Mg74   2.168       .  S
O60          C71   1.234       .  S
O61         Mg80   2.164       .  S
O62         Mg74   2.299       .  S
Mg63         O79   2.274       .  S
O64         Mg80   2.293       .  S
H65          C70   1.081       .  S
O66         Mg74   2.142       .  S
O66          C69   1.235       .  S
H67          C69   1.081       .  S
H68          C71   1.081       .  S
O73         Mg80   2.291       .  S
C76        C1459   1.463       .  S
C76          O81   1.274       .  A
O77          C78   1.272       .  A
C78        C1488   1.468       .  S
O83         Mg85   2.156       .  S
O83         Mg91   2.144       .  S
O83         C118   1.237       .  S
C84         H123   1.081       .  S
C84          O97   1.235       .  S
C84         O121   1.270       .  A
Mg85        O114   2.146       .  S
Mg85        O129   2.315       .  S
Mg85        O125   2.287       .  S
Mg85         O96   2.306       .  S
O86        Mg128   2.162       .  S
O86        Mg111   2.136       .  S
O86         C107   1.234       .  S
O87         C118   1.273       .  A
O87        Mg111   2.314       .  S
C88        C1392   1.466       .  S
C88          O90   1.269       .  A
C88         O102   1.271       .  A
O89         C117   1.271       .  A
O89         Mg91   2.304       .  S
O90        Mg122   2.258       .  S
Mg91         O97   2.164       .  S
Mg91        O105   2.271       .  S
Mg91         O93   2.301       .  S
C92        C1344   1.473       .  S
C92         O130   1.271       .  A
C92          O98   1.275       .  A
O93         C100   1.273       .  A
H94         C107   1.081       .  S
C95         H120   1.081       .  S
C95         O109   1.237       .  S
C95         O110   1.271       .  A
O96         C119   1.271       .  A
O97        Mg111   2.149       .  S
O98        Mg128   2.316       .  S
C99        C1411   1.475       .  S
C99         O112   1.271       .  A
C99         O104   1.277       .  A
C100       C1376   1.466       .  S
C100        O127   1.271       .  A
Mg101       O108   2.156       .  S
Mg101       O109   2.156       .  S
Mg101       O102   2.286       .  S
Mg101       O103   2.290       .  S
Mg101       O130   2.261       .  S
O103        C107   1.268       .  A
O104       Mg111   2.316       .  S
O105        C124   1.271       .  A
O106        C126   1.273       .  A
O106       Mg122   2.299       .  S
O108       Mg122   2.146       .  S
O108        C119   1.235       .  S
O109       Mg128   2.143       .  S
O110       Mg122   2.302       .  S
Mg111       O127   2.261       .  S
O112       Mg128   2.269       .  S
H113        C118   1.081       .  S
O114       Mg122   2.147       .  S
O114        C117   1.236       .  S
H115        C117   1.081       .  S
H116        C119   1.081       .  S
O121       Mg128   2.304       .  S
C124       C1539   1.473       .  S
C124        O129   1.276       .  A
O125        C126   1.273       .  A
C126       C1360   1.474       .  S
N131        C136   1.358       .  A
N131        C135   1.357       .  A
N131        H163   1.039       .  S
N132        C139   1.353       .  A
N132        C140   1.353   1_545  A
N133        C138   1.354       .  A
N133        C137   1.354       .  A
N133        H164   1.035       .  S
N134        C141   1.351       .  A
N134        C142   1.353   1_545  A
C135        C143   1.387       .  A
C135        C151   1.423       .  A
C136        C152   1.421       .  A
C136        C144   1.387       .  A
C137        C145   1.388       .  A
C137        C154   1.418       .  A
C138        C153   1.417       .  A
C138        C146   1.388       .  A
C139        C151   1.416       .  A
C139        C147   1.387       .  A
C140        C154   1.416       .  A
C140        C148   1.387       .  A
C141        C149   1.389       .  A
C141        C152   1.416       .  A
C142        C150   1.386       .  A
C142        C153   1.415       .  A
C143        C144   1.373       .  A
C143        H155   1.081       .  S
C144        H156   1.079       .  S
C145        C146   1.371       .  A
C145        H157   1.080       .  S
C146        H158   1.080       .  S
C147        C148   1.371   1_545  A
C147        H159   1.081       .  S
C148        H160   1.081       .  S
C149        C150   1.367   1_545  A
C149        H161   1.081       .  S
C150        H162   1.082       .  S
C151       C1491   1.497       .  S
C152       C1315   1.487       .  S
C153       C1328   1.483       .  S
C154       C1296   1.483       .  S
O165       Mg167   2.155       .  S
O165       Mg173   2.157       .  S
O165        C200   1.235       .  S
C166        H205   1.081       .  S
C166        O179   1.236       .  S
C166        O203   1.270       .  A
Mg167       O196   2.160       .  S
Mg167       O211   2.279       .  S
Mg167       O207   2.270       .  S
Mg167       O178   2.293       .  S
O168       Mg210   2.166       .  S
O168       Mg193   2.151       .  S
O168        C189   1.236       .  S
O169        C200   1.269       .  A
O169       Mg193   2.301       .  S
C170       C1264   1.479       .  S
C170        O172   1.274       .  A
C170        O184   1.277       .  A
O171        C199   1.272       .  A
O171       Mg173   2.308       .  S
O172       Mg204   2.279       .  S
Mg173       O179   2.144       .  S
Mg173       O187   2.273       .  S
Mg173       O175   2.333       .  S
C174       C1232   1.470       .  S
C174        O212   1.271       .  A
C174        O180   1.276       .  A
O175        C182   1.278       .  A
H176        C189   1.081       .  S
C177        H202   1.081       .  S
C177        O191   1.234       .  S
C177        O192   1.268       .  A
O178        C201   1.269       .  A
O179       Mg193   2.158       .  S
O180       Mg210   2.312       .  S
C181       C1283   1.474       .  S
C181        O194   1.273       .  A
C181        O186   1.274       .  A
C182       C1248   1.479       .  S
C182        O209   1.273       .  A
Mg183       O190   2.137       .  S
Mg183       O191   2.159       .  S
Mg183       O184   2.323       .  S
Mg183       O185   2.298       .  S
Mg183       O212   2.253       .  S
O185        C189   1.270       .  A
O186       Mg193   2.302       .  S
O187        C206   1.272       .  A
O188        C208   1.273       .  A
O188       Mg204   2.293       .  S
O190       Mg204   2.155       .  S
O190        C201   1.236       .  S
O191       Mg210   2.150       .  S
O192       Mg204   2.294       .  S
Mg193       O209   2.270       .  S
O194       Mg210   2.276       .  S
H195        C200   1.081       .  S
O196       Mg204   2.154       .  S
O196        C199   1.236       .  S
H197        C199   1.081       .  S
H198        C201   1.081       .  S
O203       Mg210   2.297       .  S
C206       C1331   1.466       .  S
C206        O211   1.272       .  A
O207        C208   1.271       .  A
C208       C1219   1.471       .  S
N213        C218   1.351       .  A
N213        C217   1.354       .  A
N213        H245   1.039       .  S
N214        C221   1.354       .  A
N214        C222   1.353   1_655  A
N215        C220   1.357       .  A
N215        C219   1.354       .  A
N215        H246   1.039       .  S
N216        C223   1.352       .  A
N216        C224   1.353   1_655  A
C217        C225   1.386       .  A
C217        C233   1.412       .  A
C218        C234   1.414       .  A
C218        C226   1.388       .  A
C219        C227   1.387       .  A
C219        C236   1.417       .  A
C220        C235   1.419       .  A
C220        C228   1.387       .  A
C221        C233   1.415       .  A
C221        C229   1.385       .  A
C222        C236   1.417       .  A
C222        C230   1.387       .  A
C223        C231   1.386       .  A
C223        C234   1.412       .  A
C224        C232   1.387       .  A
C224        C235   1.416       .  A
C225        C226   1.374       .  A
C225        H237   1.082       .  S
C226        H238   1.082       .  S
C227        C228   1.376       .  A
C227        H239   1.082       .  S
C228        H240   1.082       .  S
C229        C230   1.378   1_655  A
C229        H241   1.082       .  S
C230        H242   1.082       .  S
C231        C232   1.373   1_655  A
C231        H243   1.082       .  S
C232        H244   1.082       .  S
C233       C1280   1.484       .  S
C234       C1184   1.481       .  S
C235       C1200   1.495       .  S
C236       C1171   1.487       .  S
O247       Mg249   2.163       .  S
O247       Mg255   2.160       .  S
O247        C282   1.235       .  S
C248        H287   1.081       .  S
C248        O261   1.234       .  S
C248        O285   1.268       .  A
Mg249       O278   2.164       .  S
Mg249       O293   2.311       .  S
Mg249       O289   2.269       .  S
Mg249       O260   2.292       .  S
O250       Mg292   2.166       .  S
O250       Mg275   2.140       .  S
O250        C271   1.235       .  S
O251        C282   1.270       .  A
O251       Mg275   2.303       .  S
C252       C1091   1.467       .  S
C252        O254   1.274       .  A
C252        O266   1.272       .  A
O253        C281   1.272       .  A
O253       Mg255   2.306       .  S
O254       Mg286   2.290       .  S
Mg255       O261   2.148       .  S
Mg255       O269   2.277       .  S
Mg255       O257   2.328       .  S
C256       C1152   1.462       .  S
C256        O294   1.271       .  A
C256        O262   1.271       .  A
O257        C264   1.278       .  A
H258        C271   1.081       .  S
C259        H284   1.081       .  S
C259        O273   1.235       .  S
C259        O274   1.269       .  A
O260        C283   1.268       .  A
O261       Mg275   2.162       .  S
O262       Mg292   2.273       .  S
C263       C1120   1.482       .  S
C263        O276   1.274       .  A
C263        O268   1.279       .  A
C264       C1203   1.476       .  S
C264        O291   1.274       .  A
Mg265       O272   2.134       .  S
Mg265       O273   2.185       .  S
Mg265       O266   2.286       .  S
Mg265       O267   2.283       .  S
Mg265       O294   2.267       .  S
O267        C271   1.268       .  A
O268       Mg275   2.332       .  S
O269        C288   1.274       .  A
O270        C290   1.275       .  A
O270       Mg286   2.311       .  S
O272       Mg286   2.165       .  S
O272        C283   1.234       .  S
O273       Mg292   2.160       .  S
O274       Mg286   2.293       .  S
Mg275       O291   2.270       .  S
O276       Mg292   2.286       .  S
H277        C282   1.081       .  S
O278       Mg286   2.163       .  S
O278        C281   1.237       .  S
H279        C281   1.081       .  S
H280        C283   1.081       .  S
O285       Mg292   2.292       .  S
C288       C1104   1.475       .  S
C288        O293   1.275       .  A
O289        C290   1.274       .  A
C290       C1136   1.472       .  S
N295        C300   1.352       .  A
N295        C299   1.351       .  A
N295        H327   1.043       .  S
N296        C303   1.352       .  A
N296        C304   1.351   1_565  A
N297        C302   1.355       .  A
N297        C301   1.357       .  A
N297        H328   1.037       .  S
N298        C305   1.354       .  A
N298        C306   1.352   1_565  A
C299        C307   1.388       .  A
C299        C315   1.413       .  A
C300        C316   1.409       .  A
C300        C308   1.385       .  A
C301        C309   1.388       .  A
C301        C318   1.423       .  A
C302        C317   1.419       .  A
C302        C310   1.386       .  A
C303        C315   1.414       .  A
C303        C311   1.386       .  A
C304        C318   1.417       .  A
C304        C312   1.388       .  A
C305        C313   1.388       .  A
C305        C316   1.417       .  A
C306        C314   1.386       .  A
C306        C317   1.415       .  A
C307        C308   1.374       .  A
C307        H319   1.082       .  S
C308        H320   1.082       .  S
C309        C310   1.376       .  A
C309        H321   1.081       .  S
C310        H322   1.081       .  S
C311        C312   1.375   1_565  A
C311        H323   1.081       .  S
C312        H324   1.080       .  S
C313        C314   1.371   1_565  A
C313        H325   1.080       .  S
C314        H326   1.082       .  S
C315       C1155   1.493       .  S
C316       C1075   1.495       .  S
C317       C1408   1.484       .  S
C318       C1059   1.491       .  S
N329        C334   1.356   1_556  A
N329        C333   1.355       .  A
N329        H361   1.039       .  S
N330        C337   1.352       .  A
N330        C338   1.354       .  A
N331        C336   1.352   1_556  A
N331        C335   1.352       .  A
N331        H362   1.038       .  S
N332        C339   1.351       .  A
N332        C340   1.352       .  A
C333        C341   1.388       .  A
C333        C349   1.420       .  A
C334        C350   1.416       .  A
C334        C342   1.386       .  A
C335        C343   1.387       .  A
C335        C352   1.412       .  A
C336        C351   1.413       .  A
C336        C344   1.387       .  A
C337        C349   1.418       .  A
C337        C345   1.389       .  A
C338        C352   1.412       .  A
C338        C346   1.384       .  A
C339        C347   1.387       .  A
C339        C350   1.412       .  A
C340        C348   1.385       .  A
C340        C351   1.410       .  A
C341        C342   1.376   1_556  A
C341        H353   1.082       .  S
C342        H354   1.082       .  S
C343        C344   1.372   1_556  A
C343        H355   1.082       .  S
C344        H356   1.082       .  S
C345        C346   1.372       .  A
C345        H357   1.082       .  S
C346        H358   1.082       .  S
C347        C348   1.371       .  A
C347        H359   1.082       .  S
C348        H360   1.082       .  S
C349       C1139   1.488       .  S
C350       C1043   1.483       .  S
C351       C1475   1.480       .  S
C352       C1027   1.481       .  S
N363        C368   1.350   1_556  A
N363        C367   1.351       .  A
N363        H395   1.039       .  S
N364        C371   1.354       .  A
N364        C372   1.350       .  A
N365        C370   1.358   1_556  A
N365        C369   1.357       .  A
N365        H396   1.038       .  S
N366        C373   1.353       .  A
N366        C374   1.352       .  A
C367        C375   1.386       .  A
C367        C383   1.407       .  A
C368        C384   1.410       .  A
C368        C376   1.388       .  A
C369        C377   1.388       .  A
C369        C386   1.424       .  A
C370        C385   1.422       .  A
C370        C378   1.386       .  A
C371        C383   1.409       .  A
C371        C379   1.383       .  A
C372        C386   1.416       .  A
C372        C380   1.389       .  A
C373        C381   1.385       .  A
C373        C384   1.411       .  A
C374        C382   1.388       .  A
C374        C385   1.416       .  A
C375        C376   1.373   1_556  A
C375        H387   1.083       .  S
C376        H388   1.082       .  S
C377        C378   1.379   1_556  A
C377        H389   1.082       .  S
C378        H390   1.082       .  S
C379        C380   1.371       .  A
C379        H391   1.082       .  S
C380        H392   1.082       .  S
C381        C382   1.373       .  A
C381        H393   1.082       .  S
C382        H394   1.082       .  S
C383       C1395   1.478       .  S
C384        C995   1.477       .  S
C385       C1267   1.493       .  S
C386       C1008   1.490       .  S
O397       Mg399   2.149       .  S
O397       Mg405   2.183       .  S
O397        C432   1.235       .  S
C398        H437   1.081       .  S
C398        O411   1.234       .  S
C398        O435   1.267       .  A
Mg399       O428   2.158       .  S
Mg399       O443   2.285       .  S
Mg399       O439   2.269       .  S
Mg399       O410   2.299       .  S
O400       Mg442   2.161       .  S
O400       Mg425   2.149       .  S
O400        C421   1.236       .  S
O401        C432   1.269       .  A
O401       Mg425   2.293       .  S
C402       C1187   1.466       .  S
C402        O404   1.272       .  A
C402        O416   1.272       .  A
O403        C431   1.267       .  A
O403       Mg405   2.285       .  S
O404       Mg436   2.269       .  S
Mg405       O411   2.136       .  S
Mg405       O419   2.262       .  S
Mg405       O407   2.276       .  S
C406        C960   1.472       .  S
C406        O444   1.271       .  A
C406        O412   1.272       .  A
O407        C414   1.271       .  A
H408        C421   1.081       .  S
C409        H434   1.081       .  S
C409        O423   1.236       .  S
C409        O424   1.270       .  A
O410        C433   1.269       .  A
O411       Mg425   2.171       .  S
O412       Mg442   2.294       .  S
C413       C1011   1.472       .  S
C413        O426   1.271       .  A
C413        O418   1.278       .  A
C414        C944   1.466       .  S
C414        O441   1.274       .  A
Mg415       O422   2.150       .  S
Mg415       O423   2.154       .  S
Mg415       O416   2.283       .  S
Mg415       O417   2.298       .  S
Mg415       O444   2.272       .  S
O417        C421   1.270       .  A
O418       Mg425   2.318       .  S
O419        C438   1.270       .  A
O420        C440   1.277       .  A
O420       Mg436   2.316       .  S
O422       Mg436   2.159       .  S
O422        C433   1.234       .  S
O423       Mg442   2.149       .  S
O424       Mg436   2.300       .  S
Mg425       O441   2.289       .  S
O426       Mg442   2.260       .  S
H427        C432   1.081       .  S
O428       Mg436   2.138       .  S
O428        C431   1.234       .  S
H429        C431   1.081       .  S
H430        C433   1.081       .  S
O435       Mg442   2.291       .  S
C438       C1072   1.462       .  S
C438        O443   1.273       .  A
O439        C440   1.273       .  A
C440        C976   1.474       .  S
N445        C450   1.357       .  A
N445        C449   1.356       .  A
N445        H477   1.039       .  S
N446        C453   1.351   1_545  A
N446        C454   1.353       .  A
N447        C452   1.353       .  A
N447        C451   1.354       .  A
N447        H478   1.037       .  S
N448        C455   1.353   1_545  A
N448        C456   1.354       .  A
C449        C457   1.388       .  A
C449        C465   1.421       .  A
C450        C466   1.418       .  A
C450        C458   1.385       .  A
C451        C459   1.385       .  A
C451        C468   1.413       .  A
C452        C467   1.416       .  A
C452        C460   1.387       .  A
C453        C465   1.414       .  A
C453        C461   1.388       .  A
C454        C468   1.410       .  A
C454        C462   1.385       .  A
C455        C463   1.386       .  A
C455        C466   1.414       .  A
C456        C464   1.386       .  A
C456        C467   1.416       .  A
C457        C458   1.378       .  A
C457        H469   1.082       .  S
C458        H470   1.082       .  S
C459        C460   1.372       .  A
C459        H471   1.082       .  S
C460        H472   1.082       .  S
C461        C462   1.371   1_565  A
C461        H473   1.082       .  S
C462        H474   1.082       .  S
C463        C464   1.371   1_565  A
C463        H475   1.082       .  S
C464        H476   1.081       .  S
C465        C979   1.487       .  S
C466       C1251   1.490       .  S
C467        C931   1.489       .  S
C468       C1379   1.484       .  S
O479       Mg481   2.164       .  S
O479       Mg487   2.162       .  S
O479        C514   1.236       .  S
C480        H519   1.081       .  S
C480        O493   1.235       .  S
C480        O517   1.270       .  A
Mg481       O510   2.172       .  S
Mg481       O525   2.308       .  S
Mg481       O521   2.287       .  S
Mg481       O492   2.289       .  S
O482       Mg524   2.155       .  S
O482       Mg507   2.148       .  S
O482        C503   1.236       .  S
O483        C514   1.271       .  A
O483       Mg507   2.305       .  S
C484       C1504   1.467       .  S
C484        O486   1.274       .  A
C484        O498   1.273       .  A
O485        C513   1.269       .  A
O485       Mg487   2.297       .  S
O486       Mg518   2.275       .  S
Mg487       O493   2.145       .  S
Mg487       O501   2.252       .  S
Mg487       O489   2.296       .  S
C488        C928   1.473       .  S
C488        O526   1.273       .  A
C488        O494   1.273       .  A
O489        C496   1.274       .  A
H490        C503   1.081       .  S
C491        H516   1.081       .  S
C491        O505   1.235       .  S
C491        O506   1.269       .  A
O492        C515   1.267       .  A
O493       Mg507   2.161       .  S
O494       Mg524   2.301       .  S
C495       C1312   1.470       .  S
C495        O508   1.270       .  A
C495        O500   1.276       .  A
C496        C899   1.473       .  S
C496        O523   1.272       .  A
Mg497       O504   2.145       .  S
Mg497       O505   2.156       .  S
Mg497       O498   2.286       .  S
Mg497       O499   2.293       .  S
Mg497       O526   2.271       .  S
O499        C503   1.269       .  A
O500       Mg507   2.327       .  S
O501        C520   1.270       .  A
O502        C522   1.277       .  A
O502       Mg518   2.315       .  S
O504       Mg518   2.168       .  S
O504        C515   1.234       .  S
O505       Mg524   2.141       .  S
O506       Mg518   2.296       .  S
Mg507       O523   2.278       .  S
O508       Mg524   2.246       .  S
H509        C514   1.081       .  S
O510       Mg518   2.146       .  S
O510        C513   1.235       .  S
H511        C513   1.081       .  S
H512        C515   1.081       .  S
O517       Mg524   2.300       .  S
C520        C992   1.468       .  S
C520        O525   1.275       .  A
O521        C522   1.274       .  A
C522        C912   1.476       .  S
N527        C532   1.350       .  A
N527        C531   1.352   1_455  A
N527        H559   1.040       .  S
N528        C535   1.351       .  A
N528        C536   1.352       .  A
N529        C534   1.356   1_655  A
N529        C533   1.356       .  A
N529        H560   1.042       .  S
N530        C537   1.352       .  A
N530        C538   1.350       .  A
C531        C539   1.387       .  A
C531        C547   1.412       .  A
C532        C548   1.410       .  A
C532        C540   1.388       .  A
C533        C541   1.388       .  A
C533        C550   1.421       .  A
C534        C549   1.417       .  A
C534        C542   1.386       .  A
C535        C547   1.409       .  A
C535        C543   1.383       .  A
C536        C550   1.419       .  A
C536        C544   1.388       .  A
C537        C545   1.384       .  A
C537        C548   1.409       .  A
C538        C546   1.389       .  A
C538        C549   1.417       .  A
C539        C540   1.375   1_655  A
C539        H551   1.082       .  S
C540        H552   1.082       .  S
C541        C542   1.378   1_655  A
C541        H553   1.082       .  S
C542        H554   1.082       .  S
C543        C544   1.375       .  A
C543        H555   1.082       .  S
C544        H556   1.081       .  S
C545        C546   1.376       .  A
C545        H557   1.082       .  S
C546        H558   1.081       .  S
C547       C1235   1.480       .  S
C548        C883   1.474       .  S
C549       C1440   1.494       .  S
C550        C915   1.503       .  S
O561       Mg563   2.145       .  S
O561       Mg569   2.164       .  S
O561        C596   1.235       .  S
C562        H601   1.081       .  S
C562        O575   1.234       .  S
C562        O599   1.267       .  A
Mg563       O592   2.153       .  S
Mg563       O607   2.279       .  S
Mg563       O603   2.259       .  S
Mg563       O574   2.305       .  S
O564       Mg606   2.163       .  S
O564       Mg589   2.153       .  S
O564        C585   1.236       .  S
O565        C596   1.269       .  A
O565       Mg589   2.293       .  S
C566        C864   1.479       .  S
C566        O568   1.274       .  A
C566        O580   1.278       .  A
O567        C595   1.272       .  A
O567       Mg569   2.307       .  S
O568       Mg600   2.273       .  S
Mg569       O575   2.131       .  S
Mg569       O583   2.266       .  S
Mg569       O571   2.327       .  S
C570       C1299   1.470       .  S
C570        O608   1.274       .  A
C570        O576   1.273       .  A
O571        C578   1.278       .  A
H572        C585   1.081       .  S
C573        H598   1.081       .  S
C573        O587   1.235       .  S
C573        O588   1.271       .  A
O574        C597   1.271       .  A
O575       Mg589   2.157       .  S
O576       Mg606   2.291       .  S
C577        C848   1.477       .  S
C577        O590   1.275       .  A
C577        O582   1.274       .  A
C578       C1040   1.476       .  S
C578        O605   1.273       .  A
Mg579       O586   2.160       .  S
Mg579       O587   2.162       .  S
Mg579       O580   2.335       .  S
Mg579       O581   2.302       .  S
Mg579       O608   2.279       .  S
O581        C585   1.271       .  A
O582       Mg589   2.306       .  S
O583        C602   1.271       .  A
O584        C604   1.278       .  A
O584       Mg600   2.343       .  S
O586       Mg600   2.158       .  S
O586        C597   1.236       .  S
O587       Mg606   2.172       .  S
O588       Mg600   2.309       .  S
Mg589       O605   2.268       .  S
O590       Mg606   2.288       .  S
H591        C596   1.081       .  S
O592       Mg600   2.158       .  S
O592        C595   1.237       .  S
H593        C595   1.081       .  S
H594        C597   1.081       .  S
O599       Mg606   2.285       .  S
C602        C880   1.465       .  S
C602        O607   1.272       .  A
O603        C604   1.269       .  A
C604       C1168   1.479       .  S
N609        C614   1.350       .  A
N609        C613   1.351       .  A
N609        H641   1.040       .  S
N610        C617   1.354       .  A
N610        C618   1.351   1_545  A
N611        C616   1.357       .  A
N611        C615   1.358       .  A
N611        H642   1.040       .  S
N612        C619   1.353       .  A
N612        C620   1.351   1_545  A
C613        C621   1.386       .  A
C613        C629   1.407       .  A
C614        C630   1.410       .  A
C614        C622   1.388       .  A
C615        C623   1.387       .  A
C615        C632   1.423       .  A
C616        C631   1.421       .  A
C616        C624   1.386       .  A
C617        C629   1.409       .  A
C617        C625   1.383       .  A
C618        C632   1.418       .  A
C618        C626   1.389       .  A
C619        C627   1.386       .  A
C619        C630   1.411       .  A
C620        C628   1.387       .  A
C620        C631   1.414       .  A
C621        C622   1.375       .  A
C621        H633   1.082       .  S
C622        H634   1.082       .  S
C623        C624   1.379       .  A
C623        H635   1.082       .  S
C624        H636   1.082       .  S
C625        C626   1.372   1_545  A
C625        H637   1.082       .  S
C626        H638   1.082       .  S
C627        C628   1.372   1_545  A
C627        H639   1.082       .  S
C628        H640   1.082       .  S
C629        C835   1.478       .  S
C630       C1456   1.479       .  S
C631        C867   1.489       .  S
C632       C1123   1.497       .  S
O643       Mg645   2.153       .  S
O643       Mg651   2.153       .  S
O643        C678   1.237       .  S
C644        H683   1.081       .  S
C644        O657   1.235       .  S
C644        O681   1.270       .  A
Mg645       O674   2.159       .  S
Mg645       O689   2.307       .  S
Mg645       O685   2.284       .  S
Mg645       O656   2.302       .  S
O646       Mg688   2.144       .  S
O646       Mg671   2.141       .  S
O646        C667   1.236       .  S
O647        C678   1.272       .  A
O647       Mg671   2.306       .  S
C648        C832   1.472       .  S
C648        O650   1.271       .  A
C648        O662   1.275       .  A
O649        C677   1.270       .  A
O649       Mg651   2.299       .  S
O650       Mg682   2.270       .  S
Mg651       O657   2.163       .  S
Mg651       O665   2.276       .  S
Mg651       O653   2.302       .  S
C652       C1523   1.472       .  S
C652        O690   1.273       .  A
C652        O658   1.274       .  A
O653        C660   1.274       .  A
H654        C667   1.081       .  S
C655        H680   1.081       .  S
C655        O669   1.236       .  S
C655        O670   1.271       .  A
O656        C679   1.270       .  A
O657       Mg671   2.155       .  S
O658       Mg688   2.301       .  S
C659        C819   1.481       .  S
C659        O672   1.272       .  A
C659        O664   1.278       .  A
C660       C1024   1.467       .  S
C660        O687   1.271       .  A
Mg661       O668   2.166       .  S
Mg661       O669   2.154       .  S
Mg661       O662   2.304       .  S
Mg661       O663   2.301       .  S
Mg661       O690   2.283       .  S
O663        C667   1.270       .  A
O664       Mg671   2.335       .  S
O665        C684   1.272       .  A
O666        C686   1.276       .  A
O666       Mg682   2.311       .  S
O668       Mg682   2.163       .  S
O668        C679   1.236       .  S
O669       Mg688   2.160       .  S
O670       Mg682   2.307       .  S
Mg671       O687   2.255       .  S
O672       Mg688   2.282       .  S
H673        C678   1.081       .  S
O674       Mg682   2.141       .  S
O674        C677   1.236       .  S
H675        C677   1.081       .  S
H676        C679   1.081       .  S
O681       Mg688   2.302       .  S
C684        C800   1.473       .  S
C684        O689   1.275       .  A
O685        C686   1.272       .  A
C686       C1056   1.478       .  S
N691        C696   1.355       .  A
N691        C695   1.358   1_655  A
N691        H723   1.040       .  S
N692        C699   1.350       .  A
N692        C700   1.352       .  A
N693        C698   1.352       .  A
N693        C697   1.353   1_655  A
N693        H724   1.040       .  S
N694        C701   1.353       .  A
N694        C702   1.355       .  A
C695        C703   1.386       .  A
C695        C711   1.420       .  A
C696        C712   1.421       .  A
C696        C704   1.388       .  A
C697        C705   1.388       .  A
C697        C714   1.414       .  A
C698        C713   1.410       .  A
C698        C706   1.386       .  A
C699        C711   1.412       .  A
C699        C707   1.387       .  A
C700        C714   1.412       .  A
C700        C708   1.385       .  A
C701        C709   1.387       .  A
C701        C712   1.416       .  A
C702        C710   1.386       .  A
C702        C713   1.416       .  A
C703        C704   1.377   1_455  A
C703        H715   1.082       .  S
C704        H716   1.082       .  S
C705        C706   1.374   1_455  A
C705        H717   1.082       .  S
C706        H718   1.082       .  S
C707        C708   1.373       .  A
C707        H719   1.083       .  S
C708        H720   1.082       .  S
C709        C710   1.374       .  A
C709        H721   1.082       .  S
C710        H722   1.082       .  S
C711        C816   1.491       .  S
C712       C1363   1.490       .  S
C713        C963   1.487       .  S
C714       C1107   1.486       .  S
N725        C730   1.352       .  A
N725        C729   1.354       .  A
N725        H757   1.041       .  S
N726        C733   1.354       .  A
N726        C734   1.352   1_554  A
N727        C732   1.354       .  A
N727        C731   1.353       .  A
N727        H758   1.039       .  S
N728        C735   1.352       .  A
N728        C736   1.352   1_554  A
C729        C737   1.387       .  A
C729        C745   1.414       .  A
C730        C746   1.413       .  A
C730        C738   1.387       .  A
C731        C739   1.387       .  A
C731        C748   1.413       .  A
C732        C747   1.414       .  A
C732        C740   1.387       .  A
C733        C745   1.416       .  A
C733        C741   1.387       .  A
C734        C748   1.412       .  A
C734        C742   1.385       .  A
C735        C743   1.387       .  A
C735        C746   1.413       .  A
C736        C744   1.385       .  A
C736        C747   1.413       .  A
C737        C738   1.374       .  A
C737        H749   1.082       .  S
C738        H750   1.082       .  S
C739        C740   1.372       .  A
C739        H751   1.082       .  S
C740        H752   1.082       .  S
C741        C742   1.375   1_554  A
C741        H753   1.081       .  S
C742        H754   1.082       .  S
C743        C744   1.376   1_554  A
C743        H755   1.082       .  S
C744        H756   1.082       .  S
C745        C896   1.492       .  S
C746       C1424   1.485       .  S
C747        C803   1.483       .  S
C748       C1347   1.481       .  S
N759        C764   1.353       .  A
N759        C763   1.355   1_556  A
N759        H791   1.042       .  S
N760        C767   1.352       .  A
N760        C768   1.350       .  A
N761        C766   1.356       .  A
N761        C765   1.353   1_556  A
N761        H792   1.042       .  S
N762        C769   1.351       .  A
N762        C770   1.351       .  A
C763        C771   1.386       .  A
C763        C779   1.415       .  A
C764        C780   1.417       .  A
C764        C772   1.387       .  A
C765        C773   1.386       .  A
C765        C782   1.414       .  A
C766        C781   1.419       .  A
C766        C774   1.388       .  A
C767        C779   1.413       .  A
C767        C775   1.386       .  A
C768        C782   1.412       .  A
C768        C776   1.387       .  A
C769        C777   1.386       .  A
C769        C780   1.414       .  A
C770        C778   1.386       .  A
C770        C781   1.414       .  A
C771        C772   1.373   1_554  A
C771        H783   1.080       .  S
C772        H784   1.081       .  S
C773        C774   1.374   1_554  A
C773        H785   1.081       .  S
C774        H786   1.081       .  S
C775        C776   1.376       .  A
C775        H787   1.082       .  S
C776        H788   1.082       .  S
C777        C778   1.376       .  A
C777        H789   1.082       .  S
C778        H790   1.082       .  S
C779        C851   1.487       .  S
C780       C1088   1.493       .  S
C781        C947   1.497       .  S
C782       C1216   1.479       .  S
C793        C798   1.380       .  A
C793        C794   1.404       .  A
C793        O799   1.319       .  A
C794        C795   1.403       .  A
C794        H805   1.082       .  S
C795        C804   1.363       .  A
C795        C796   1.380       .  A
C796        C797   1.404       .  A
C796        O802   1.319       .  A
C797        C798   1.403       .  A
C797        H806   1.082       .  S
C798        C801   1.362       .  A
O799        C800   1.331       .  A
C800        C801   1.393       .  A
C801        H807   1.083       .  S
O802        C803   1.332       .  A
C803        C804   1.391       .  A
C804        H808   1.082       .  S
C809        C814   1.379       .  A
C809        C810   1.405       .  A
C809        O815   1.318       .  A
C810        C811   1.404       .  A
C810        H821   1.082       .  S
C811        C820   1.366       .  A
C811        C812   1.379       .  A
C812        C813   1.409       .  A
C812        O818   1.322       .  A
C813        C814   1.407       .  A
C813        H822   1.082       .  S
C814        C817   1.370       .  A
O815        C816   1.332       .  A
C816        C817   1.395       .  A
C817        H823   1.082       .  S
O818        C819   1.334       .  A
C819        C820   1.393       .  A
C820        H824   1.083       .  S
C825        C830   1.380       .  A
C825        C826   1.407       .  A
C825        O831   1.322       .  A
C826        C827   1.406       .  A
C826        H837   1.082       .  S
C827        C836   1.366       .  A
C827        C828   1.381       .  A
C828        C829   1.400       .  A
C828        O834   1.316       .  A
C829        C830   1.400       .  A
C829        H838   1.082       .  S
C830        C833   1.359       .  A
O831        C832   1.333       .  A
C832        C833   1.390       .  A
C833        H839   1.083       .  S
O834        C835   1.328       .  A
C835        C836   1.392       .  A
C836        H840   1.082       .  S
C841        C846   1.380       .  A
C841        C842   1.407       .  A
C841        O847   1.322       .  A
C842        C843   1.406       .  A
C842        H853   1.082       .  S
C843        C852   1.365       .  A
C843        C844   1.380       .  A
C844        C845   1.404       .  A
C844        O850   1.320       .  A
C845        C846   1.403       .  A
C845        H854   1.082       .  S
C846        C849   1.363       .  A
O847        C848   1.334       .  A
C848        C849   1.391       .  A
C849        H855   1.082       .  S
O850        C851   1.331       .  A
C851        C852   1.393       .  A
C852        H856   1.082       .  S
C857        C862   1.380       .  A
C857        C858   1.405       .  A
C857        O863   1.322       .  A
C858        C859   1.405       .  A
C858        H869   1.082       .  S
C859        C868   1.362       .  A
C859        C860   1.380       .  A
C860        C861   1.406       .  A
C860        O866   1.323       .  A
C861        C862   1.406       .  A
C861        H870   1.082       .  S
C862        C865   1.364       .  A
O863        C864   1.333       .  A
C864        C865   1.394       .  A
C865        H871   1.082       .  S
O866        C867   1.332       .  A
C867        C868   1.393       .  A
C868        H872   1.082       .  S
C873        C878   1.381       .  A
C873        C874   1.404       .  A
C873        O879   1.320       .  A
C874        C875   1.403       .  A
C874        H885   1.082       .  S
C875        C884   1.363       .  A
C875        C876   1.381       .  A
C876        C877   1.400       .  A
C876        O882   1.316       .  A
C877        C878   1.399       .  A
C877        H886   1.082       .  S
C878        C881   1.356       .  A
O879        C880   1.331       .  A
C880        C881   1.390       .  A
C881        H887   1.083       .  S
O882        C883   1.329       .  A
C883        C884   1.390       .  A
C884        H888   1.082       .  S
C889        C894   1.380       .  A
C889        C890   1.403       .  A
C889        O895   1.321       .  A
C890        C891   1.403       .  A
C890        H901   1.082       .  S
C891        C900   1.359       .  A
C891        C892   1.380       .  A
C892        C893   1.404       .  A
C892        O898   1.322       .  A
C893        C894   1.405       .  A
C893        H902   1.082       .  S
C894        C897   1.360       .  A
O895        C896   1.332       .  A
C896        C897   1.395       .  A
C897        H903   1.083       .  S
O898        C899   1.332       .  A
C899        C900   1.392       .  A
C900        H904   1.083       .  S
C905        C910   1.380       .  A
C905        C906   1.406       .  A
C905        O911   1.323       .  A
C906        C907   1.406       .  A
C906        H917   1.082       .  S
C907        C916   1.363       .  A
C907        C908   1.377       .  A
C908        C909   1.404       .  A
C908        O914   1.320       .  A
C909        C910   1.405       .  A
C909        H918   1.082       .  S
C910        C913   1.362       .  A
O911        C912   1.333       .  A
C912        C913   1.392       .  A
C913        H919   1.083       .  S
O914        C915   1.334       .  A
C915        C916   1.399       .  A
C916        H920   1.081       .  S
C921        C926   1.380       .  A
C921        C922   1.408       .  A
C921        O927   1.321       .  A
C922        C923   1.406       .  A
C922        H933   1.082       .  S
C923        C932   1.366       .  A
C923        C924   1.380       .  A
C924        C925   1.400       .  A
C924        O930   1.315       .  A
C925        C926   1.399       .  A
C925        H934   1.082       .  S
C926        C929   1.359       .  A
O927        C928   1.334       .  A
C928        C929   1.389       .  A
C929        H935   1.082       .  S
O930        C931   1.330       .  A
C931        C932   1.395       .  A
C932        H936   1.082       .  S
C937        C942   1.380       .  A
C937        C938   1.402       .  A
C937        O943   1.316       .  A
C938        C939   1.401       .  A
C938        H949   1.082       .  S
C939        C948   1.360       .  A
C939        C940   1.378       .  A
C940        C941   1.406       .  A
C940        O946   1.319       .  A
C941        C942   1.404       .  A
C941        H950   1.082       .  S
C942        C945   1.366       .  A
O943        C944   1.330       .  A
C944        C945   1.390       .  A
C945        H951   1.082       .  S
O946        C947   1.334       .  A
C947        C948   1.395       .  A
C948        H952   1.082       .  S
C953        C958   1.380       .  A
C953        C954   1.405       .  A
C953        O959   1.319       .  A
C954        C955   1.403       .  A
C954        H965   1.082       .  S
C955        C964   1.364       .  A
C955        C956   1.380       .  A
C956        C957   1.405       .  A
C956        O962   1.318       .  A
C957        C958   1.403       .  A
C957        H966   1.082       .  S
C958        C961   1.364       .  A
O959        C960   1.332       .  A
C960        C961   1.392       .  A
C961        H967   1.083       .  S
O962        C963   1.332       .  A
C963        C964   1.392       .  A
C964        H968   1.082       .  S
C969        C974   1.380       .  A
C969        C970   1.404       .  A
C969        O975   1.319       .  A
C970        C971   1.403       .  A
C970        H981   1.082       .  S
C971        C980   1.363       .  A
C971        C972   1.380       .  A
C972        C973   1.404       .  A
C972        O978   1.318       .  A
C973        C974   1.404       .  A
C973        H982   1.082       .  S
C974        C977   1.363       .  A
O975        C976   1.331       .  A
C976        C977   1.393       .  A
C977        H983   1.083       .  S
O978        C979   1.333       .  A
C979        C980   1.392       .  A
C980        H984   1.082       .  S
C985        C990   1.381       .  A
C985        C986   1.401       .  A
C985        O991   1.316       .  A
C986        C987   1.400       .  A
C986        H997   1.082       .  S
C987        C996   1.357       .  A
C987        C988   1.381       .  A
C988        C989   1.403       .  A
C988        O994   1.319       .  A
C989        C990   1.403       .  A
C989        H998   1.082       .  S
C990        C993   1.362       .  A
O991        C992   1.330       .  A
C992        C993   1.392       .  A
C993        H999   1.082       .  S
O994        C995   1.330       .  A
C995        C996   1.390       .  A
C996       H1000   1.083       .  S
C1001      C1006   1.380       .  A
C1001      C1002   1.402       .  A
C1001      O1007   1.320       .  A
C1002      C1003   1.403       .  A
C1002      H1013   1.082       .  S
C1003      C1012   1.361       .  A
C1003      C1004   1.380       .  A
C1004      C1005   1.404       .  A
C1004      O1010   1.320       .  A
C1005      C1006   1.404       .  A
C1005      H1014   1.082       .  S
C1006      C1009   1.360       .  A
O1007      C1008   1.331       .  A
C1008      C1009   1.395       .  A
C1009      H1015   1.083       .  S
O1010      C1011   1.333       .  A
C1011      C1012   1.391       .  A
C1012      H1016   1.082       .  S
C1017      C1022   1.381       .  A
C1017      C1018   1.401       .  A
C1017      O1023   1.318       .  A
C1018      C1019   1.401       .  A
C1018      H1029   1.082       .  S
C1019      C1028   1.358       .  A
C1019      C1020   1.381       .  A
C1020      C1021   1.404       .  A
C1020      O1026   1.320       .  A
C1021      C1022   1.403       .  A
C1021      H1030   1.082       .  S
C1022      C1025   1.361       .  A
O1023      C1024   1.330       .  A
C1024      C1025   1.392       .  A
C1025      H1031   1.083       .  S
O1026      C1027   1.331       .  A
C1027      C1028   1.390       .  A
C1028      H1032   1.082       .  S
C1033      C1038   1.380       .  A
C1033      C1034   1.404       .  A
C1033      O1039   1.321       .  A
C1034      C1035   1.404       .  A
C1034      H1045   1.082       .  S
C1035      C1044   1.361       .  A
C1035      C1036   1.381       .  A
C1036      C1037   1.404       .  A
C1036      O1042   1.321       .  A
C1037      C1038   1.404       .  A
C1037      H1046   1.082       .  S
C1038      C1041   1.362       .  A
O1039      C1040   1.332       .  A
C1040      C1041   1.393       .  A
C1041      H1047   1.083       .  S
O1042      C1043   1.331       .  A
C1043      C1044   1.391       .  A
C1044      H1048   1.082       .  S
C1049      C1054   1.380       .  A
C1049      C1050   1.408       .  A
C1049      O1055   1.324       .  A
C1050      C1051   1.408       .  A
C1050      H1061   1.082       .  S
C1051      C1060   1.365       .  A
C1051      C1052   1.380       .  A
C1052      C1053   1.402       .  A
C1052      O1058   1.319       .  A
C1053      C1054   1.402       .  A
C1053      H1062   1.082       .  S
C1054      C1057   1.359       .  A
O1055      C1056   1.334       .  A
C1056      C1057   1.391       .  A
C1057      H1063   1.083       .  S
O1058      C1059   1.330       .  A
C1059      C1060   1.395       .  A
C1060      H1064   1.082       .  S
C1065      C1070   1.380       .  A
C1065      C1066   1.407       .  A
C1065      O1071   1.323       .  A
C1066      C1067   1.408       .  A
C1066      H1077   1.082       .  S
C1067      C1076   1.364       .  A
C1067      C1068   1.378       .  A
C1068      C1069   1.397       .  A
C1068      O1074   1.313       .  A
C1069      C1070   1.396       .  A
C1069      H1078   1.082       .  S
C1070      C1073   1.353       .  A
O1071      C1072   1.332       .  A
C1072      C1073   1.386       .  A
C1073      H1079   1.083       .  S
O1074      C1075   1.328       .  A
C1075      C1076   1.400       .  A
C1076      H1080   1.082       .  S
C1081      C1086   1.378       .  A
C1081      C1082   1.405       .  A
C1081      O1087   1.316       .  A
C1082      C1083   1.402       .  A
C1082      H1093   1.082       .  S
C1083      C1092   1.367       .  A
C1083      C1084   1.380       .  A
C1084      C1085   1.404       .  A
C1084      O1090   1.316       .  A
C1085      C1086   1.402       .  A
C1085      H1094   1.082       .  S
C1086      C1089   1.364       .  A
O1087      C1088   1.333       .  A
C1088      C1089   1.395       .  A
C1089      H1095   1.082       .  S
O1090      C1091   1.331       .  A
C1091      C1092   1.390       .  A
C1092      H1096   1.082       .  S
C1097      C1102   1.380       .  A
C1097      C1098   1.408       .  A
C1097      O1103   1.322       .  A
C1098      C1099   1.407       .  A
C1098      H1109   1.082       .  S
C1099      C1108   1.367       .  A
C1099      C1100   1.380       .  A
C1100      C1101   1.401       .  A
C1100      O1106   1.315       .  A
C1101      C1102   1.400       .  A
C1101      H1110   1.082       .  S
C1102      C1105   1.361       .  A
O1103      C1104   1.334       .  A
C1104      C1105   1.391       .  A
C1105      H1111   1.082       .  S
O1106      C1107   1.330       .  A
C1107      C1108   1.395       .  A
C1108      H1112   1.082       .  S
C1113      C1118   1.380       .  A
C1113      C1114   1.405       .  A
C1113      O1119   1.322       .  A
C1114      C1115   1.404       .  A
C1114      H1125   1.082       .  S
C1115      C1124   1.360       .  A
C1115      C1116   1.379       .  A
C1116      C1117   1.408       .  A
C1116      O1122   1.325       .  A
C1117      C1118   1.409       .  A
C1117      H1126   1.082       .  S
C1118      C1121   1.367       .  A
O1119      C1120   1.333       .  A
C1120      C1121   1.395       .  A
C1121      H1127   1.082       .  S
O1122      C1123   1.334       .  A
C1123      C1124   1.395       .  A
C1124      H1128   1.083       .  S
C1129      C1134   1.380       .  A
C1129      C1130   1.408       .  A
C1129      O1135   1.322       .  A
C1130      C1131   1.407       .  A
C1130      H1141   1.082       .  S
C1131      C1140   1.366       .  A
C1131      C1132   1.380       .  A
C1132      C1133   1.399       .  A
C1132      O1138   1.314       .  A
C1133      C1134   1.398       .  A
C1133      H1142   1.082       .  S
C1134      C1137   1.357       .  A
O1135      C1136   1.334       .  A
C1136      C1137   1.389       .  A
C1137      H1143   1.083       .  S
O1138      C1139   1.329       .  A
C1139      C1140   1.396       .  A
C1140      H1144   1.082       .  S
C1145      C1150   1.381       .  A
C1145      C1146   1.402       .  A
C1145      O1151   1.321       .  A
C1146      C1147   1.402       .  A
C1146      H1157   1.082       .  S
C1147      C1156   1.356       .  A
C1147      C1148   1.379       .  A
C1148      C1149   1.401       .  A
C1148      O1154   1.319       .  A
C1149      C1150   1.402       .  A
C1149      H1158   1.082       .  S
C1150      C1153   1.356       .  A
O1151      C1152   1.330       .  A
C1152      C1153   1.389       .  A
C1153      H1159   1.083       .  S
O1154      C1155   1.332       .  A
C1155      C1156   1.396       .  A
C1156      H1160   1.082       .  S
C1161      C1166   1.379       .  A
C1161      C1162   1.408       .  A
C1161      O1167   1.320       .  A
C1162      C1163   1.406       .  A
C1162      H1173   1.082       .  S
C1163      C1172   1.368       .  A
C1163      C1164   1.380       .  A
C1164      C1165   1.406       .  A
C1164      O1170   1.319       .  A
C1165      C1166   1.404       .  A
C1165      H1174   1.082       .  S
C1166      C1169   1.367       .  A
O1167      C1168   1.334       .  A
C1168      C1169   1.393       .  A
C1169      H1175   1.082       .  S
O1170      C1171   1.332       .  A
C1171      C1172   1.393       .  A
C1172      H1176   1.082       .  S
C1177      C1182   1.381       .  A
C1177      C1178   1.403       .  A
C1177      O1183   1.319       .  A
C1178      C1179   1.403       .  A
C1178      H1189   1.082       .  S
C1179      C1188   1.359       .  A
C1179      C1180   1.381       .  A
C1180      C1181   1.400       .  A
C1180      O1186   1.317       .  A
C1181      C1182   1.399       .  A
C1181      H1190   1.082       .  S
C1182      C1185   1.356       .  A
O1183      C1184   1.331       .  A
C1184      C1185   1.390       .  A
C1185      H1191   1.082       .  S
O1186      C1187   1.329       .  A
C1187      C1188   1.392       .  A
C1188      H1192   1.083       .  S
C1193      C1198   1.379       .  A
C1193      C1194   1.406       .  A
C1193      O1199   1.321       .  A
C1194      C1195   1.405       .  A
C1194      H1205   1.082       .  S
C1195      C1204   1.364       .  A
C1195      C1196   1.380       .  A
C1196      C1197   1.405       .  A
C1196      O1202   1.321       .  A
C1197      C1198   1.404       .  A
C1197      H1206   1.082       .  S
C1198      C1201   1.363       .  A
O1199      C1200   1.333       .  A
C1200      C1201   1.395       .  A
C1201      H1207   1.082       .  S
O1202      C1203   1.332       .  A
C1203      C1204   1.394       .  A
C1204      H1208   1.083       .  S
C1209      C1214   1.381       .  A
C1209      C1210   1.401       .  A
C1209      O1215   1.318       .  A
C1210      C1211   1.401       .  A
C1210      H1221   1.082       .  S
C1211      C1220   1.359       .  A
C1211      C1212   1.380       .  A
C1212      C1213   1.405       .  A
C1212      O1218   1.321       .  A
C1213      C1214   1.404       .  A
C1213      H1222   1.082       .  S
C1214      C1217   1.362       .  A
O1215      C1216   1.330       .  A
C1216      C1217   1.391       .  A
C1217      H1223   1.082       .  S
O1218      C1219   1.332       .  A
C1219      C1220   1.391       .  A
C1220      H1224   1.083       .  S
C1225      C1230   1.381       .  A
C1225      C1226   1.403       .  A
C1225      O1231   1.320       .  A
C1226      C1227   1.403       .  A
C1226      H1237   1.082       .  S
C1227      C1236   1.360       .  A
C1227      C1228   1.381       .  A
C1228      C1229   1.403       .  A
C1228      O1234   1.320       .  A
C1229      C1230   1.403       .  A
C1229      H1238   1.082       .  S
C1230      C1233   1.360       .  A
O1231      C1232   1.331       .  A
C1232      C1233   1.392       .  A
C1233      H1239   1.083       .  S
O1234      C1235   1.330       .  A
C1235      C1236   1.391       .  A
C1236      H1240   1.082       .  S
C1241      C1246   1.380       .  A
C1241      C1242   1.404       .  A
C1241      O1247   1.322       .  A
C1242      C1243   1.404       .  A
C1242      H1253   1.082       .  S
C1243      C1252   1.361       .  A
C1243      C1244   1.380       .  A
C1244      C1245   1.407       .  A
C1244      O1250   1.325       .  A
C1245      C1246   1.408       .  A
C1245      H1254   1.082       .  S
C1246      C1249   1.365       .  A
O1247      C1248   1.332       .  A
C1248      C1249   1.395       .  A
C1249      H1255   1.082       .  S
O1250      C1251   1.333       .  A
C1251      C1252   1.391       .  A
C1252      H1256   1.082       .  S
C1257      C1262   1.380       .  A
C1257      C1258   1.405       .  A
C1257      O1263   1.321       .  A
C1258      C1259   1.405       .  A
C1258      H1269   1.082       .  S
C1259      C1268   1.362       .  A
C1259      C1260   1.380       .  A
C1260      C1261   1.407       .  A
C1260      O1266   1.324       .  A
C1261      C1262   1.407       .  A
C1261      H1270   1.082       .  S
C1262      C1265   1.365       .  A
O1263      C1264   1.332       .  A
C1264      C1265   1.394       .  A
C1265      H1271   1.082       .  S
O1266      C1267   1.333       .  A
C1267      C1268   1.394       .  A
C1268      H1272   1.082       .  S
C1273      C1278   1.380       .  A
C1273      C1274   1.406       .  A
C1273      O1279   1.321       .  A
C1274      C1275   1.405       .  A
C1274      H1285   1.082       .  S
C1275      C1284   1.364       .  A
C1275      C1276   1.380       .  A
C1276      C1277   1.404       .  A
C1276      O1282   1.319       .  A
C1277      C1278   1.404       .  A
C1277      H1286   1.082       .  S
C1278      C1281   1.363       .  A
O1279      C1280   1.332       .  A
C1280      C1281   1.390       .  A
C1281      H1287   1.082       .  S
O1282      C1283   1.332       .  A
C1283      C1284   1.393       .  A
C1284      H1288   1.082       .  S
C1289      C1294   1.380       .  A
C1289      C1290   1.403       .  A
C1289      O1295   1.318       .  A
C1290      C1291   1.402       .  A
C1290      H1301   1.082       .  S
C1291      C1300   1.363       .  A
C1291      C1292   1.380       .  A
C1292      C1293   1.403       .  A
C1292      O1298   1.317       .  A
C1293      C1294   1.402       .  A
C1293      H1302   1.082       .  S
C1294      C1297   1.361       .  A
O1295      C1296   1.330       .  A
C1296      C1297   1.392       .  A
C1297      H1303   1.082       .  S
O1298      C1299   1.331       .  A
C1299      C1300   1.391       .  A
C1300      H1304   1.082       .  S
C1305      C1310   1.380       .  A
C1305      C1306   1.405       .  A
C1305      O1311   1.322       .  A
C1306      C1307   1.405       .  A
C1306      H1317   1.082       .  S
C1307      C1316   1.363       .  A
C1307      C1308   1.379       .  A
C1308      C1309   1.401       .  A
C1308      O1314   1.316       .  A
C1309      C1310   1.400       .  A
C1309      H1318   1.082       .  S
C1310      C1313   1.358       .  A
O1311      C1312   1.332       .  A
C1312      C1313   1.391       .  A
C1313      H1319   1.083       .  S
O1314      C1315   1.331       .  A
C1315      C1316   1.394       .  A
C1316      H1320   1.082       .  S
C1321      C1326   1.381       .  A
C1321      C1322   1.400       .  A
C1321      O1327   1.317       .  A
C1322      C1323   1.400       .  A
C1322      H1333   1.082       .  S
C1323      C1332   1.356       .  A
C1323      C1324   1.381       .  A
C1324      C1325   1.403       .  A
C1324      O1330   1.319       .  A
C1325      C1326   1.402       .  A
C1325      H1334   1.082       .  S
C1326      C1329   1.359       .  A
O1327      C1328   1.329       .  A
C1328      C1329   1.392       .  A
C1329      H1335   1.082       .  S
O1330      C1331   1.330       .  A
C1331      C1332   1.391       .  A
C1332      H1336   1.083       .  S
C1337      C1342   1.380       .  A
C1337      C1338   1.405       .  A
C1337      O1343   1.321       .  A
C1338      C1339   1.404       .  A
C1338      H1349   1.082       .  S
C1339      C1348   1.362       .  A
C1339      C1340   1.381       .  A
C1340      C1341   1.402       .  A
C1340      O1346   1.319       .  A
C1341      C1342   1.402       .  A
C1341      H1350   1.082       .  S
C1342      C1345   1.361       .  A
O1343      C1344   1.332       .  A
C1344      C1345   1.392       .  A
C1345      H1351   1.083       .  S
O1346      C1347   1.329       .  A
C1347      C1348   1.392       .  A
C1348      H1352   1.082       .  S
C1353      C1358   1.380       .  A
C1353      C1354   1.403       .  A
C1353      O1359   1.321       .  A
C1354      C1355   1.403       .  A
C1354      H1365   1.082       .  S
C1355      C1364   1.360       .  A
C1355      C1356   1.380       .  A
C1356      C1357   1.406       .  A
C1356      O1362   1.322       .  A
C1357      C1358   1.406       .  A
C1357      H1366   1.082       .  S
C1358      C1361   1.363       .  A
O1359      C1360   1.331       .  A
C1360      C1361   1.394       .  A
C1361      H1367   1.083       .  S
O1362      C1363   1.334       .  A
C1363      C1364   1.391       .  A
C1364      H1368   1.082       .  S
C1369      C1374   1.381       .  A
C1369      C1370   1.402       .  A
C1369      O1375   1.318       .  A
C1370      C1371   1.401       .  A
C1370      H1381   1.082       .  S
C1371      C1380   1.359       .  A
C1371      C1372   1.381       .  A
C1372      C1373   1.404       .  A
C1372      O1378   1.320       .  A
C1373      C1374   1.403       .  A
C1373      H1382   1.082       .  S
C1374      C1377   1.362       .  A
O1375      C1376   1.330       .  A
C1376      C1377   1.392       .  A
C1377      H1383   1.083       .  S
O1378      C1379   1.332       .  A
C1379      C1380   1.391       .  A
C1380      H1384   1.082       .  S
C1385      C1390   1.381       .  A
C1385      C1386   1.403       .  A
C1385      O1391   1.318       .  A
C1386      C1387   1.402       .  A
C1386      H1397   1.082       .  S
C1387      C1396   1.362       .  A
C1387      C1388   1.381       .  A
C1388      C1389   1.402       .  A
C1388      O1394   1.317       .  A
C1389      C1390   1.401       .  A
C1389      H1398   1.082       .  S
C1390      C1393   1.360       .  A
O1391      C1392   1.330       .  A
C1392      C1393   1.391       .  A
C1393      H1399   1.083       .  S
O1394      C1395   1.330       .  A
C1395      C1396   1.390       .  A
C1396      H1400   1.082       .  S
C1401      C1406   1.381       .  A
C1401      C1402   1.401       .  A
C1401      O1407   1.317       .  A
C1402      C1403   1.400       .  A
C1402      H1413   1.082       .  S
C1403      C1412   1.360       .  A
C1403      C1404   1.380       .  A
C1404      C1405   1.408       .  A
C1404      O1410   1.322       .  A
C1405      C1406   1.406       .  A
C1405      H1414   1.082       .  S
C1406      C1409   1.366       .  A
O1407      C1408   1.329       .  A
C1408      C1409   1.393       .  A
C1409      H1415   1.082       .  S
O1410      C1411   1.334       .  A
C1411      C1412   1.391       .  A
C1412      H1416   1.083       .  S
C1417      C1422   1.380       .  A
C1417      C1418   1.403       .  A
C1417      O1423   1.320       .  A
C1418      C1419   1.403       .  A
C1418      H1429   1.082       .  S
C1419      C1428   1.361       .  A
C1419      C1420   1.380       .  A
C1420      C1421   1.403       .  A
C1420      O1426   1.319       .  A
C1421      C1422   1.402       .  A
C1421      H1430   1.082       .  S
C1422      C1425   1.359       .  A
O1423      C1424   1.331       .  A
C1424      C1425   1.393       .  A
C1425      H1431   1.083       .  S
O1426      C1427   1.331       .  A
C1427      C1428   1.392       .  A
C1428      H1432   1.083       .  S
C1433      C1438   1.379       .  A
C1433      C1434   1.404       .  A
C1433      O1439   1.321       .  A
C1434      C1435   1.405       .  A
C1434      H1445   1.082       .  S
C1435      C1444   1.360       .  A
C1435      C1436   1.381       .  A
C1436      C1437   1.403       .  A
C1436      O1442   1.323       .  A
C1437      C1438   1.404       .  A
C1437      H1446   1.082       .  S
C1438      C1441   1.360       .  A
O1439      C1440   1.333       .  A
C1440      C1441   1.394       .  A
C1441      H1447   1.082       .  S
O1442      C1443   1.330       .  A
C1443      C1444   1.391       .  A
C1444      H1448   1.083       .  S
C1449      C1454   1.381       .  A
C1449      C1450   1.401       .  A
C1449      O1455   1.317       .  A
C1450      C1451   1.400       .  A
C1450      H1461   1.082       .  S
C1451      C1460   1.359       .  A
C1451      C1452   1.381       .  A
C1452      C1453   1.401       .  A
C1452      O1458   1.316       .  A
C1453      C1454   1.400       .  A
C1453      H1462   1.082       .  S
C1454      C1457   1.358       .  A
O1455      C1456   1.329       .  A
C1456      C1457   1.391       .  A
C1457      H1463   1.083       .  S
O1458      C1459   1.330       .  A
C1459      C1460   1.390       .  A
C1460      H1464   1.083       .  S
C1465      C1470   1.380       .  A
C1465      C1466   1.400       .  A
C1465      O1471   1.314       .  A
C1466      C1467   1.398       .  A
C1466      H1477   1.082       .  S
C1467      C1476   1.357       .  A
C1467      C1468   1.381       .  A
C1468      C1469   1.406       .  A
C1468      O1474   1.320       .  A
C1469      C1470   1.405       .  A
C1469      H1478   1.082       .  S
C1470      C1473   1.367       .  A
O1471      C1472   1.329       .  A
C1472      C1473   1.394       .  A
C1473      H1479   1.082       .  S
O1474      C1475   1.332       .  A
C1475      C1476   1.388       .  A
C1476      H1480   1.082       .  S
C1481      C1486   1.380       .  A
C1481      C1482   1.404       .  A
C1481      O1487   1.318       .  A
C1482      C1483   1.402       .  A
C1482      H1493   1.082       .  S
C1483      C1492   1.362       .  A
C1483      C1484   1.378       .  A
C1484      C1485   1.406       .  A
C1484      O1490   1.320       .  A
C1485      C1486   1.405       .  A
C1485      H1494   1.082       .  S
C1486      C1489   1.367       .  A
O1487      C1488   1.331       .  A
C1488      C1489   1.391       .  A
C1489      H1495   1.082       .  S
O1490      C1491   1.334       .  A
C1491      C1492   1.395       .  A
C1492      H1496   1.082       .  S
C1497      C1502   1.380       .  A
C1497      C1498   1.403       .  A
C1497      O1503   1.316       .  A
C1498      C1499   1.401       .  A
C1498      H1509   1.082       .  S
C1499      C1508   1.363       .  A
C1499      C1500   1.379       .  A
C1500      C1501   1.403       .  A
C1500      O1506   1.316       .  A
C1501      C1502   1.401       .  A
C1501      H1510   1.082       .  S
C1502      C1505   1.363       .  A
O1503      C1504   1.331       .  A
C1504      C1505   1.391       .  A
C1505      H1511   1.082       .  S
O1506      C1507   1.332       .  A
C1507      C1508   1.393       .  A
C1508      H1512   1.082       .  S
C1513      C1518   1.381       .  A
C1513      C1514   1.404       .  A
C1513      O1519   1.319       .  A
C1514      C1515   1.404       .  A
C1514      H1525   1.082       .  S
C1515      C1524   1.362       .  A
C1515      C1516   1.380       .  A
C1516      C1517   1.403       .  A
C1516      O1522   1.319       .  A
C1517      C1518   1.402       .  A
C1517      H1526   1.082       .  S
C1518      C1521   1.360       .  A
O1519      C1520   1.331       .  A
C1520      C1521   1.390       .  A
C1521      H1527   1.082       .  S
O1522      C1523   1.331       .  A
C1523      C1524   1.393       .  A
C1524      H1528   1.083       .  S
C1529      C1534   1.380       .  A
C1529      C1530   1.403       .  A
C1529      O1535   1.318       .  A
C1530      C1531   1.403       .  A
C1530      H1541   1.082       .  S
C1531      C1540   1.362       .  A
C1531      C1532   1.380       .  A
C1532      C1533   1.404       .  A
C1532      O1538   1.319       .  A
C1533      C1534   1.403       .  A
C1533      H1542   1.082       .  S
C1534      C1537   1.362       .  A
O1535      C1536   1.331       .  A
C1536      C1537   1.391       .  A
C1537      H1543   1.082       .  S
O1538      C1539   1.331       .  A
C1539      C1540   1.392       .  A
C1540      H1544   1.083       .  S
C1545      C1550   1.381       .  A
C1545      C1546   1.401       .  A
C1545      O1551   1.318       .  A
C1546      C1547   1.400       .  A
C1546      H1557   1.082       .  S
C1547      C1556   1.357       .  A
C1547      C1548   1.380       .  A
C1548      C1549   1.405       .  A
C1548      O1554   1.321       .  A
C1549      C1550   1.405       .  A
C1549      H1558   1.082       .  S
C1550      C1553   1.363       .  A
O1551      C1552   1.330       .  A
C1552      C1553   1.394       .  A
C1553      H1559   1.083       .  S
O1554      C1555   1.332       .  A
C1555      C1556   1.390       .  A
C1556      H1560   1.083       .  S
