geometry optimzed in LAMMPS
_audit_creation_date              2020-11-30 
_audit_creation_method            'lammps2cif' 
_symmetry_space_group_name_H-M    'P1' 
_symmetry_Int_Tables_number       1 
_symmetry_cell_setting            triclinic 
loop_ 
_symmetry_equiv_pos_as_xyz 
  x,y,z 
_cell_length_a                    50.2952421 
_cell_length_b                    51.01480140285818 
_cell_length_c                    30.365646114620233 
_cell_angle_alpha                 86.37225979441818 
_cell_angle_beta                  90.84467430747557 
_cell_angle_gamma                 119.28407799933109 
loop_ 
_atom_site_label 
_atom_site_type_symbol 
_atom_site_fract_x 
_atom_site_fract_y 
_atom_site_fract_z 
_atom_site_charge 
Zr1        Zr  0.80373393  0.35019160  0.18285439     2.17500
O2          O  0.76107929  0.33119438  0.23538147    -0.51600
O3          O  0.78432238  0.38632691  0.17310923    -0.74800
O4          O  0.81932389  0.35698141  0.26062103    -0.81600
O5          O  0.75352974  0.29862833  0.09539354    -0.83300
O6          O  0.87094388  0.38107953  0.26230586    -0.78900
O7          O  0.75436124  0.30887012  0.16718685    -0.90600
O8          O  0.81186881  0.42107077  0.11838607    -0.76500
O9          O  0.84941491  0.39704013  0.17241877    -0.86000
O10         O  0.80550628  0.36567119  0.10662027    -0.85700
O11         O  0.84308179  0.33716014  0.19950107    -0.72500
O12         O  0.80315040  0.31070271  0.14217122    -0.84600
Zr13       Zr  0.89331637  0.36350726  0.07199821     2.26400
Zr14       Zr  0.88871967  0.38460715  0.18819487     2.06300
Zr15       Zr  0.80557829  0.32717491  0.06650777     2.10000
Zr16       Zr  0.85196151  0.41201739  0.09604576     1.78800
O17         O  0.78631746  0.27674099  0.04135089    -0.93400
O18         O  0.87857138  0.45774052  0.13577176    -0.41200
O19         O  0.85218676  0.37375834  0.05514737    -0.77900
O20         O  0.89304717  0.40265586  0.11206052    -0.96600
O21         O  0.89014305  0.34650946  0.14760957    -0.89900
O22         O  0.84634464  0.31697467  0.08078299    -0.92700
C23         C  0.78976997  0.40918733  0.14649161     1.01100
C24         C  0.74066057  0.29486106  0.13326733     1.14000
C25         C  0.84471608  0.36867485  0.28132685     1.04800
O26         O  0.91309068  0.43382609  0.21897913    -0.94900
O27         O  0.93842916  0.41236828  0.15619886    -0.90600
O28         O  0.94198437  0.38029935  0.11344100    -0.83700
C29         C  0.95303334  0.39989114  0.14306871     1.11400
O30         O  0.81421500  0.26267751  0.21441947    -0.96800
Zr31       Zr  0.84418094  0.29997455  0.15558781     1.88900
O32         O  0.90049179  0.32117913  0.05740382    -0.73500
O33         O  0.91849429  0.36840233  0.23499694    -0.52700
O34         O  0.87482320  0.29287726  0.21299472    -0.97400
O35         O  0.80630120  0.25082619  0.13203029    -0.54600
O36         O  0.87456730  0.28469634  0.11162473    -0.74000
C37         C  0.89189657  0.29512132  0.07676135     0.98400
O38         O  0.93554415  0.39864483  0.02342481    -0.62800
O39         O  0.77394619  0.33775076  0.01479244    -0.57600
O40         O  0.87785594  0.35876586  0.99432163    -0.94300
O41         O  0.82596820  0.33553492  0.99271265    -0.92700
O42         O  0.83322116  0.42480360  0.02826667    -0.93100
O43         O  0.88965358  0.45139264  0.04566093    -0.91900
C44         C  0.85226188  0.34757754  0.97379860     1.17200
H45         H  0.78781358  0.36732483  0.09805015     0.33100
H46         H  0.91103011  0.42163419  0.10421886     0.44000
H47         H  0.84459938  0.30239599  0.06054839     0.37500
H48         H  0.84136324  0.32896253  0.22948652     0.34000
H49         H  0.90053014  0.46462287  0.13131404     0.25800
H50         H  0.92945515  0.38481101  0.25508705     0.31700
H51         H  0.89197266  0.29311720  0.19704783     0.37600
H52         H  0.82293060  0.40577344  0.01310624     0.32100
H53         H  0.75844036  0.31776418  0.00546317     0.31000
H54         H  0.77063701  0.27448047  0.01954435     0.32700
H55         H  0.81316199  0.24969816  0.10216692     0.31600
H56         H  0.89869230  0.44122261  0.02966328     0.35600
H57         H  0.94595618  0.41731991  0.03941279     0.28300
H58         H  0.76535828  0.34791796  0.25423853     0.32600
H59         H  0.80039527  0.26963314  0.22529216     0.35400
H60         H  0.76233785  0.34433483  0.03285895     0.28000
H61         H  0.94994708  0.39062768  0.02414422     0.40900
H62         H  0.92788859  0.43323261  0.24032203     0.31000
H63         H  0.87504985  0.47285178  0.11849204     0.38600
H64         H  0.78764912  0.25244726  0.12698222     0.30400
H65         H  0.90326486  0.35134298  0.25417820     0.30500
H66         H  0.76263933  0.31577133  0.25498850     0.30800
Zr67       Zr  0.80788787  0.34939260  0.68622670     2.17500
O68         O  0.76728585  0.33305696  0.74178578    -0.51600
O69         O  0.79096981  0.38788424  0.67776339    -0.74800
O70         O  0.82564477  0.35517346  0.76319140    -0.81600
O71         O  0.75460367  0.30345813  0.59681455    -0.83300
O72         O  0.87602415  0.36976557  0.76423842    -0.78900
O73         O  0.75699495  0.30952090  0.67041478    -0.90600
O74         O  0.82415823  0.42674973  0.63201000    -0.76500
O75         O  0.85670878  0.39319483  0.67924204    -0.86000
O76         O  0.81151127  0.36972070  0.61219673    -0.85700
O77         O  0.84337465  0.33026935  0.69809949    -0.72500
O78         O  0.80295372  0.31075327  0.63934565    -0.84600
Zr79       Zr  0.89270890  0.36099800  0.56713487     2.26400
Zr80       Zr  0.89232139  0.37495136  0.68886911     2.06300
Zr81       Zr  0.80632964  0.33173906  0.56601231     2.10000
Zr82       Zr  0.86056654  0.41365779  0.60533785     1.78800
O83         O  0.78155306  0.28422158  0.53045530    -0.93400
O84         O  0.89216124  0.45795866  0.64597218    -0.41200
O85         O  0.85497731  0.37645363  0.55673065    -0.77900
O86         O  0.89868086  0.39887043  0.61619148    -0.96600
O87         O  0.88803012  0.33825241  0.63967283    -0.89900
O88         O  0.84395335  0.31623083  0.57383386    -0.92700
C89         C  0.79964246  0.41330064  0.65549712     1.01100
C90         C  0.74231117  0.29764841  0.63560659     1.14000
C91         C  0.85080006  0.36250413  0.78348274     1.04800
O92         O  0.92666776  0.42874340  0.69287755    -0.94900
O93         O  0.92744721  0.35981598  0.66391907    -0.90600
O94         O  0.94387924  0.38566352  0.59994810    -0.83700
C95         C  0.94929345  0.37913616  0.63937494     1.11400
O96         O  0.80881616  0.25360657  0.70071273    -0.96800
Zr97       Zr  0.84012588  0.29427000  0.64644757     1.88900
O98         O  0.89952859  0.31845186  0.55355826    -0.73500
O99         O  0.93107049  0.37913041  0.74171191    -0.52700
O100        O  0.86946427  0.28140652  0.69937172    -0.97400
O101        O  0.79886500  0.25004857  0.61481596    -0.54600
O102        O  0.86861884  0.27824830  0.59960984    -0.74000
C103        C  0.88892596  0.29100620  0.56838297     0.98400
O104        O  0.93262600  0.38895196  0.51120663    -0.62800
O105        O  0.77591806  0.34992021  0.52495117    -0.57600
O106        O  0.87740758  0.36433080  0.49066056    -0.94300
O107        O  0.82572462  0.34312597  0.49128796    -0.92700
O108        O  0.84220009  0.43121080  0.54165874    -0.93100
O109        O  0.90006014  0.45250140  0.55652352    -0.91900
C110        C  0.85169273  0.35553902  0.47127940     1.17200
H111        H  0.79512485  0.37367914  0.60421443     0.33100
H112        H  0.91853934  0.41644724  0.61202555     0.44000
H113        H  0.84129522  0.30262148  0.55141349     0.37500
H114        H  0.84076463  0.32055561  0.72727726     0.34000
H115        H  0.88905668  0.47413297  0.63133505     0.25800
H116        H  0.93646195  0.39726764  0.75781466     0.31700
H117        H  0.88255180  0.30029891  0.71386589     0.37600
H118        H  0.84164023  0.41874365  0.51758200     0.32100
H119        H  0.79098191  0.36958472  0.51065404     0.31000
H120        H  0.76772733  0.28642620  0.50886369     0.32700
H121        H  0.80444330  0.25193747  0.58320904     0.31600
H122        H  0.90789586  0.44161799  0.53968928     0.35600
H123        H  0.94376679  0.40983350  0.52065181     0.28300
H124        H  0.77276875  0.35069143  0.75928317     0.32600
H125        H  0.81225729  0.23665460  0.69448684     0.35400
H126        H  0.76735634  0.33648556  0.50033927     0.28000
H127        H  0.94714845  0.38116735  0.51511057     0.40900
H128        H  0.91919961  0.43422195  0.71884845     0.31000
H129        H  0.88185971  0.45381395  0.67513739     0.38600
H130        H  0.78105886  0.25338370  0.61506150     0.30400
H131        H  0.92106389  0.36187712  0.76381518     0.30500
H132        H  0.76904048  0.31811528  0.76229428     0.30800
Zr133      Zr  0.53686305  0.20176001  0.15456654     2.17500
O134        O  0.53430736  0.23668514  0.20343136    -0.51600
O135        O  0.59223585  0.22167129  0.16119714    -0.74800
O136        O  0.53402725  0.18517551  0.23146697    -0.81600
O137        O  0.54414545  0.25505510  0.05988239    -0.83300
O138        O  0.50059306  0.13520300  0.23991448    -0.78900
O139        O  0.55762980  0.25347784  0.13130151    -0.90600
O140        O  0.60247542  0.18930175  0.12717936    -0.76500
O141        O  0.53770461  0.15574569  0.15920649    -0.86000
O142        O  0.55876136  0.20073487  0.08639759    -0.85700
O143        O  0.48361267  0.16464115  0.16249135    -0.72500
O144        O  0.50277156  0.20427658  0.09974097    -0.84600
Zr145      Zr  0.47505180  0.11650990  0.04325387     2.26400
Zr146      Zr  0.48531974  0.11870431  0.16693448     2.06300
Zr147      Zr  0.52587882  0.20404433  0.03239545     2.10000
Zr148      Zr  0.55828670  0.15362387  0.09057327     1.78800
O149        O  0.50321866  0.22782526  0.98485362    -0.93400
O150        O  0.57347822  0.12306990  0.13800836    -0.41200
O151        O  0.52655770  0.15707972  0.03441176    -0.77900
O152        O  0.50700593  0.11379615  0.10047580    -0.96600
O153        O  0.45199918  0.11834535  0.10969983    -0.89900
O154        O  0.47453404  0.16340515  0.03706407    -0.92700
C155        C  0.61080400  0.21320998  0.14752830     1.01100
C156        C  0.55548826  0.26750740  0.09644823     1.14000
C157        C  0.51882554  0.16056490  0.25513233     1.04800
O158        O  0.50360718  0.08746587  0.20563776    -0.94900
O159        O  0.45458377  0.06797629  0.14999382    -0.90600
O160        O  0.44403343  0.06469364  0.07688519    -0.83700
C161        C  0.44158799  0.05308568  0.11664916     1.11400
O162        O  0.43518227  0.19056846  0.15166873    -0.96800
Zr163      Zr  0.45057813  0.16409905  0.10288207     1.88900
O164        O  0.42619256  0.10625477  0.01464043    -0.73500
O165        O  0.43910202  0.09835260  0.21235677    -0.52700
O166        O  0.40605340  0.12999005  0.14837547    -0.97400
O167        O  0.44188046  0.20264335  0.06478627    -0.54600
O168        O  0.41187685  0.13653457  0.04668821    -0.74000
C169        C  0.40780525  0.11655584  0.01918966     0.98400
O170        O  0.47967186  0.08003050  0.00048397    -0.62800
O171        O  0.57441967  0.23405220  0.99288022    -0.57600
O172        O  0.48926166  0.13150905  0.96627029    -0.94300
O173        O  0.51843878  0.18258548  0.96165819    -0.92700
O174        O  0.59826195  0.17634642  0.03378022    -0.93100
O175        O  0.56356339  0.11763289  0.04767653    -0.91900
C176        C  0.50504679  0.15692137  0.94454704     1.17200
H177        H  0.57890453  0.21764986  0.08076455     0.33100
H178        H  0.50665679  0.09467120  0.10120694     0.44000
H179        H  0.46405235  0.16514698  0.01105188     0.37500
H180        H  0.47568827  0.16692511  0.18992064     0.34000
H181        H  0.59509049  0.13045447  0.12982403     0.25800
H182        H  0.44214439  0.08649712  0.23703456     0.31700
H183        H  0.38861613  0.12980000  0.13253369     0.37600
H184        H  0.59064694  0.18595552  0.01146218     0.32100
H185        H  0.56930116  0.24241625  0.96581718     0.31000
H186        H  0.49858647  0.23993139  0.00440583     0.32700
H187        H  0.44187077  0.19921394  0.03305635     0.31600
H188        H  0.54655380  0.11084305  0.02667807     0.35600
H189        H  0.48620182  0.06882740  0.02169875     0.28300
H190        H  0.55122654  0.24192549  0.22432590     0.32600
H191        H  0.45455979  0.20621454  0.16349410     0.35400
H192        H  0.58620857  0.25166900  0.01062049     0.28000
H193        H  0.45852386  0.06527473  0.99300745     0.40900
H194        H  0.51391802  0.08257785  0.18259606     0.31000
H195        H  0.57422936  0.12992549  0.16801625     0.38600
H196        H  0.46095124  0.22176119  0.06850427     0.30400
H197        H  0.44008494  0.11588914  0.22608378     0.30500
H198        H  0.51543239  0.22464479  0.22145648     0.30800
Zr199      Zr  0.53906126  0.20276131  0.65662808     2.17500
O200        O  0.53303490  0.23861189  0.69857082    -0.51600
O201        O  0.59379717  0.22067976  0.66818900    -0.74800
O202        O  0.53186517  0.18633110  0.73377369    -0.81600
O203        O  0.55770638  0.25955143  0.56314177    -0.83300
O204        O  0.49224530  0.13854279  0.73685264    -0.78900
O205        O  0.56632857  0.25512409  0.63603839    -0.90600
O206        O  0.60442290  0.18913354  0.63219672    -0.76500
O207        O  0.53654907  0.15502820  0.66215016    -0.86000
O208        O  0.56295643  0.20115863  0.59093333    -0.85700
O209        O  0.48505792  0.16752402  0.65980333    -0.72500
O210        O  0.50941349  0.20929379  0.59829449    -0.84600
Zr211      Zr  0.47975926  0.12225954  0.53925960     2.26400
Zr212      Zr  0.48336834  0.11976761  0.66388201     2.06300
Zr213      Zr  0.53476389  0.20863389  0.53356771     2.10000
Zr214      Zr  0.55982845  0.15285785  0.59596685     1.78800
O215        O  0.51654008  0.23716458  0.48753670    -0.93400
O216        O  0.57459301  0.12407177  0.64801361    -0.41200
O217        O  0.53256090  0.16018247  0.53577295    -0.77900
O218        O  0.50730463  0.11484869  0.59969468    -0.96600
O219        O  0.45463756  0.12448270  0.60337154    -0.89900
O220        O  0.48220145  0.17039720  0.53366782    -0.92700
C221        C  0.61254220  0.21276845  0.65336098     1.01100
C222        C  0.56799833  0.27081550  0.60080625     1.14000
C223        C  0.51186045  0.16233674  0.75488933     1.04800
O224        O  0.50218024  0.08465463  0.68257272    -0.94900
O225        O  0.43554544  0.08260244  0.63538798    -0.90600
O226        O  0.44784978  0.07068458  0.57192638    -0.83700
C227        C  0.43310061  0.06318140  0.60891052     1.11400
O228        O  0.44469720  0.20312701  0.64087849    -0.96800
Zr229      Zr  0.45636090  0.17151846  0.59721386     1.88900
O230        O  0.43150499  0.11303453  0.50968394    -0.73500
O231        O  0.45000434  0.08909405  0.72583704    -0.52700
O232        O  0.41094050  0.14245587  0.64374864    -0.97400
O233        O  0.45029008  0.20973122  0.55297110    -0.54600
O234        O  0.41687921  0.14273161  0.54282372    -0.74000
C235        C  0.41282265  0.12285724  0.51519204     0.98400
O236        O  0.48244440  0.08603567  0.49342006    -0.62800
O237        O  0.58593699  0.23613323  0.50068889    -0.57600
O238        O  0.49730614  0.14029006  0.46400041    -0.94300
O239        O  0.52818752  0.19116528  0.46023325    -0.92700
O240        O  0.59970963  0.17142222  0.53914542    -0.93100
O241        O  0.56248127  0.11264178  0.56052167    -0.91900
C242        C  0.51411387  0.16574021  0.44280600     1.17200
H243        H  0.58355876  0.21749285  0.58669918     0.33100
H244        H  0.50543875  0.09510752  0.59953390     0.44000
H245        H  0.47279100  0.17297359  0.50701157     0.37500
H246        H  0.47613415  0.16988447  0.68618733     0.34000
H247        H  0.59581942  0.13008383  0.63932762     0.25800
H248        H  0.43020385  0.08828538  0.71999708     0.31700
H249        H  0.41570574  0.12909801  0.66336080     0.37600
H250        H  0.58907304  0.16994085  0.51093964     0.32100
H251        H  0.58488020  0.22661070  0.47283893     0.31000
H252        H  0.53502685  0.25327844  0.47196211     0.32700
H253        H  0.44864475  0.20385028  0.52217666     0.31600
H254        H  0.54836516  0.10807698  0.53549542     0.35600
H255        H  0.48854242  0.07394336  0.51356172     0.28300
H256        H  0.54863500  0.24450494  0.72166957     0.32600
H257        H  0.46330356  0.21452125  0.65814871     0.35400
H258        H  0.58868279  0.25624253  0.49116787     0.28000
H259        H  0.46104279  0.07201524  0.48601849     0.40900
H260        H  0.51620666  0.09354866  0.70726821     0.31000
H261        H  0.57647870  0.13301459  0.67668044     0.38600
H262        H  0.47039769  0.22818057  0.55378813     0.30400
H263        H  0.44607489  0.06834974  0.72247823     0.30500
H264        H  0.51315191  0.22660532  0.71417930     0.30800
Zr265      Zr  0.64709192  0.46146313  0.17353584     2.17500
O266        O  0.66481501  0.43638466  0.22784496    -0.51600
O267        O  0.61406799  0.40631014  0.16241198    -0.74800
O268        O  0.63948223  0.46899579  0.25233668    -0.81600
O269        O  0.70251447  0.46637422  0.08612192    -0.83300
O270        O  0.61533619  0.49653168  0.25208317    -0.78900
O271        O  0.69143989  0.45659168  0.15949190    -0.90600
O272        O  0.57679181  0.39990359  0.11431987    -0.76500
O273        O  0.59889517  0.45912089  0.16677088    -0.86000
O274        O  0.63229193  0.44912414  0.09927677    -0.85700
O275        O  0.65962548  0.51282695  0.18390777    -0.72500
O276        O  0.68125412  0.50075526  0.12539542    -0.84600
Zr277      Zr  0.63150225  0.53621231  0.05420404     2.26400
Zr278      Zr  0.61077030  0.50982629  0.17629426     2.06300
Zr279      Zr  0.67158327  0.48775551  0.05448003     2.10000
Zr280      Zr  0.58458926  0.44863092  0.09191655     1.78800
O281        O  0.72211219  0.51974325  0.02157851    -0.93400
O282        O  0.53847353  0.42819072  0.13757181    -0.41200
O283        O  0.62361143  0.48645618  0.04488133    -0.77900
O284        O  0.59263685  0.49762196  0.10255186    -0.96600
O285        O  0.64826372  0.54903692  0.12752423    -0.89900
O286        O  0.68004145  0.53765577  0.05924527    -0.92700
C287        C  0.59116926  0.38969010  0.13818320     1.01100
C288        C  0.70626769  0.45734619  0.12512366     1.14000
C289        C  0.62807039  0.48301053  0.27241262     1.04800
O290        O  0.56080015  0.48227274  0.21229463    -0.94900
O291        O  0.58263936  0.53267882  0.14635781    -0.90600
O292        O  0.61579608  0.56703264  0.09718022    -0.83700
C293        C  0.59671812  0.55948681  0.12998034     1.11400
O294        O  0.73393049  0.55878278  0.18809782    -0.96800
Zr295      Zr  0.69609304  0.55111389  0.13186877     1.88900
O296        O  0.67168914  0.58650624  0.03158766    -0.73500
O297        O  0.62636596  0.55410988  0.21831717    -0.52700
O298        O  0.69965312  0.58854151  0.18113711    -0.97400
O299        O  0.74639826  0.56244860  0.10557022    -0.54600
O300        O  0.70992853  0.59608406  0.07981702    -0.74000
C301        C  0.69826205  0.60380889  0.04641442     0.98400
O302        O  0.59471983  0.54303974  0.00874100    -0.62800
O303        O  0.66504148  0.44515916  0.01429814    -0.57600
O304        O  0.63292451  0.52212480  0.97757395    -0.94300
O305        O  0.65771441  0.49476092  0.98037543    -0.92700
O306        O  0.56995123  0.41843420  0.02787717    -0.93100
O307        O  0.54580470  0.44954613  0.04378846    -0.91900
C308        C  0.64385524  0.50697308  0.95939731     1.17200
H309        H  0.63192652  0.43111180  0.09064407     0.33100
H310        H  0.57331718  0.49682264  0.09697137     0.44000
H311        H  0.69447379  0.55064355  0.03654043     0.37500
H312        H  0.66794227  0.51895890  0.21257102     0.34000
H313        H  0.52895114  0.44068084  0.12876494     0.25800
H314        H  0.61039952  0.54774548  0.24153355     0.31700
H315        H  0.71626207  0.60793573  0.16832318     0.37600
H316        H  0.58950788  0.42375912  0.01307099     0.32100
H317        H  0.64479420  0.43732888  0.00061822     0.31000
H318        H  0.72741471  0.50564207  0.00828355     0.32700
H319        H  0.74829250  0.57150712  0.07517143     0.31600
H320        H  0.55722054  0.46726576  0.02286565     0.35600
H321        H  0.58230884  0.52347562  0.99556408     0.28300
H322        H  0.64703321  0.42325333  0.24741738     0.32600
H323        H  0.74852091  0.58068152  0.18612158     0.35400
H324        H  0.67979336  0.45421942  0.98922457     0.28000
H325        H  0.58054951  0.54408457  0.02992727     0.40900
H326        H  0.54611698  0.47750209  0.18800597     0.31000
H327        H  0.52472920  0.40830757  0.12607694     0.38600
H328        H  0.74465950  0.54254341  0.10173792     0.30400
H329        H  0.64470070  0.55670740  0.23434700     0.30500
H330        H  0.67945622  0.45228979  0.24641885     0.30800
Zr331      Zr  0.65700671  0.46497197  0.67571370     2.17500
O332        O  0.67637883  0.44267737  0.73210539    -0.51600
O333        O  0.62750559  0.41004373  0.66427041    -0.74800
O334        O  0.64773133  0.47228407  0.75344013    -0.81600
O335        O  0.71122374  0.46924331  0.58654964    -0.83300
O336        O  0.61878503  0.49513473  0.75299165    -0.78900
O337        O  0.70286503  0.46296791  0.66067342    -0.90600
O338        O  0.58391176  0.40064700  0.62966841    -0.76500
O339        O  0.60752506  0.45965138  0.66901893    -0.86000
O340        O  0.64197220  0.45153865  0.60172894    -0.85700
O341        O  0.66546134  0.51519521  0.68441513    -0.72500
O342        O  0.69515271  0.50535303  0.62776239    -0.84600
Zr343      Zr  0.63488190  0.53518357  0.55586425     2.26400
Zr344      Zr  0.61529204  0.50908629  0.67745018     2.06300
Zr345      Zr  0.67961742  0.49058364  0.55470956     2.10000
Zr346      Zr  0.59270607  0.44750176  0.59508401     1.78800
O347        O  0.72985966  0.52476839  0.52243606    -0.93400
O348        O  0.54483488  0.42761317  0.63644059    -0.41200
O349        O  0.63023513  0.48659601  0.54778003    -0.77900
O350        O  0.59719083  0.49546645  0.60425805    -0.96600
O351        O  0.65131656  0.54914465  0.62856777    -0.89900
O352        O  0.68452999  0.53916844  0.56076244    -0.92700
C353        C  0.60241106  0.39228069  0.64528252     1.01100
C354        C  0.71651757  0.46205325  0.62602527     1.14000
C355        C  0.63343680  0.48362737  0.77318972     1.04800
O356        O  0.56478995  0.48093253  0.71185016    -0.94900
O357        O  0.58508922  0.53014872  0.64934653    -0.90600
O358        O  0.61702902  0.56443707  0.59886060    -0.83700
C359        C  0.59813541  0.55675855  0.63199888     1.11400
O360        O  0.73652551  0.56726589  0.69334583    -0.96800
Zr361      Zr  0.70073007  0.55478568  0.63285776     1.88900
O362        O  0.67341042  0.58598283  0.53193713    -0.73500
O363        O  0.63107816  0.55334745  0.71957705    -0.52700
O364        O  0.70079809  0.59249023  0.67841233    -0.97400
O365        O  0.75258408  0.56946720  0.60948423    -0.54600
O366        O  0.71294096  0.59763472  0.57848652    -0.74000
C367        C  0.70022339  0.60401186  0.54527521     0.98400
O368        O  0.59709304  0.53903881  0.50882125    -0.62800
O369        O  0.67483326  0.45120029  0.50841014    -0.57600
O370        O  0.63670287  0.52159357  0.47943242    -0.94300
O371        O  0.66309922  0.49579591  0.48043455    -0.92700
O372        O  0.58452750  0.41502588  0.53509377    -0.93100
O373        O  0.55340101  0.44223712  0.54292627    -0.91900
C374        C  0.64776256  0.50690182  0.46031614     1.17200
H375        H  0.64205288  0.43363946  0.59348649     0.33100
H376        H  0.57739748  0.49367342  0.59906753     0.44000
H377        H  0.69840956  0.55240595  0.53761859     0.37500
H378        H  0.67337139  0.52177594  0.71319538     0.34000
H379        H  0.53676783  0.44142285  0.62803382     0.25800
H380        H  0.61520487  0.54699382  0.74292246     0.31700
H381        H  0.71138377  0.61175599  0.66031559     0.37600
H382        H  0.60527665  0.42007806  0.52530516     0.32100
H383        H  0.69577906  0.45825386  0.49714626     0.31000
H384        H  0.72619088  0.52700589  0.49065266     0.32700
H385        H  0.75338933  0.57476261  0.57741867     0.31600
H386        H  0.56361357  0.46026693  0.52219214     0.35600
H387        H  0.58005765  0.51811988  0.50838210     0.28300
H388        H  0.65914272  0.42981219  0.75269260     0.32600
H389        H  0.75139032  0.58895453  0.68802556     0.35400
H390        H  0.67038599  0.43363196  0.52896231     0.28000
H391        H  0.58888605  0.54955538  0.52571203     0.40900
H392        H  0.56003874  0.45963817  0.71339999     0.31000
H393        H  0.53080127  0.40859308  0.62290788     0.38600
H394        H  0.75360518  0.55053089  0.61154148     0.30400
H395        H  0.64941836  0.55585357  0.73549569     0.30500
H396        H  0.69107053  0.45953505  0.74923866     0.30800
Zr397      Zr  0.32843565  0.79859884  0.15957931     2.17500
O398        O  0.30964406  0.75775048  0.10976053    -0.51600
O399        O  0.36718361  0.78160947  0.16442517    -0.74800
O400        O  0.33346961  0.81510776  0.08114005    -0.81600
O401        O  0.29261664  0.74235312  0.25399233    -0.83300
O402        O  0.34080458  0.86251522  0.07735827    -0.78900
O403        O  0.28848682  0.74898637  0.18028602    -0.90600
O404        O  0.41070428  0.82079003  0.18672829    -0.76500
O405        O  0.37217108  0.84724093  0.15718163    -0.86000
O406        O  0.35160378  0.80118893  0.22942308    -0.85700
O407        O  0.30710604  0.83222178  0.15076016    -0.72500
O408        O  0.29002877  0.79181250  0.21330783    -0.84600
Zr409      Zr  0.34238164  0.87858609  0.27465297     2.26400
Zr410      Zr  0.35181668  0.88096420  0.15001368     2.06300
Zr411      Zr  0.31375930  0.79317282  0.28231406     2.10000
Zr412      Zr  0.39536240  0.85014611  0.22712612     1.78800
O413        O  0.26561711  0.76485166  0.32326325    -0.93400
O414        O  0.44176840  0.88526140  0.18575203    -0.41200
O415        O  0.35883129  0.84176319  0.28308148    -0.77900
O416        O  0.37898199  0.88650930  0.21752125    -0.96600
O417        O  0.31684908  0.87615037  0.20699662    -0.89900
O418        O  0.29723093  0.83025738  0.27715209    -0.92700
C419        C  0.39532308  0.79360173  0.17604612     1.01100
C420        C  0.28361823  0.73219365  0.21554277     1.14000
C421        C  0.33634416  0.83876401  0.05933592     1.04800
O422        O  0.40478556  0.91567847  0.12921276    -0.94900
O423        O  0.34291055  0.91792620  0.18137717    -0.90600
O424        O  0.37073716  0.93011793  0.24107338    -0.83700
C425        C  0.36469842  0.93749217  0.20269418     1.11400
O426        O  0.22869294  0.79469441  0.16758862    -0.96800
Zr427      Zr  0.27269272  0.82854713  0.20913872     1.88900
O428        O  0.30143107  0.88769337  0.29283877    -0.73500
O429        O  0.35000002  0.91691551  0.09460986    -0.52700
O430        O  0.25999046  0.85578082  0.15146429    -0.97400
O431        O  0.22713498  0.79182979  0.25071351    -0.54600
O432        O  0.25964489  0.86062439  0.25253038    -0.74000
C433        C  0.27434235  0.88042694  0.28086550     0.98400
O434        O  0.36790084  0.91533688  0.32985765    -0.62800
O435        O  0.33414035  0.76384853  0.32137671    -0.57600
O436        O  0.34666376  0.86154937  0.34957637    -0.94300
O437        O  0.32699659  0.81082789  0.35594924    -0.92700
O438        O  0.41555728  0.82932521  0.28414797    -0.93100
O439        O  0.43169985  0.88820890  0.27397243    -0.91900
C440        C  0.33927209  0.83670890  0.37223257     1.17200
H441        H  0.35663868  0.78550532  0.23705707     0.33100
H442        H  0.39705656  0.90595949  0.21749237     0.44000
H443        H  0.28422325  0.82770811  0.30199738     0.37500
H444        H  0.29598114  0.82903654  0.12365559     0.34000
H445        H  0.43737422  0.87983620  0.15472496     0.25800
H446        H  0.36398161  0.91926820  0.07018577     0.31700
H447        H  0.24276403  0.85731391  0.16395530     0.37600
H448        H  0.40232158  0.80723454  0.28411866     0.32100
H449        H  0.35327217  0.77885559  0.33460163     0.31000
H450        H  0.26631566  0.77824174  0.34600339     0.32700
H451        H  0.22483209  0.80286269  0.27472317     0.31600
H452        H  0.41905176  0.89310807  0.29287344     0.35600
H453        H  0.38963857  0.92665902  0.32047666     0.28300
H454        H  0.32725360  0.76190391  0.09070965     0.32600
H455        H  0.23693599  0.78625183  0.14661698     0.35400
H456        H  0.31993628  0.75334238  0.34672639     0.28000
H457        H  0.36038477  0.92998506  0.32556398     0.40900
H458        H  0.40947414  0.90564832  0.10605705     0.31000
H459        H  0.44272118  0.90508876  0.18608880     0.38600
H460        H  0.23299899  0.77771108  0.26582409     0.30400
H461        H  0.32929865  0.90658295  0.08219102     0.30500
H462        H  0.29501698  0.76019720  0.09009901     0.30800
Zr463      Zr  0.33357092  0.80634951  0.65991689     2.17500
O464        O  0.30089154  0.77147620  0.60620289    -0.51600
O465        O  0.37137212  0.78813431  0.66690373    -0.74800
O466        O  0.35203577  0.82462943  0.58481836    -0.81600
O467        O  0.28395350  0.75002307  0.74851519    -0.83300
O468        O  0.35741072  0.87138828  0.57524855    -0.78900
O469        O  0.30402247  0.75392359  0.68017679    -0.90600
O470        O  0.40800073  0.81976689  0.71146049    -0.76500
O471        O  0.37852368  0.85341574  0.66391877    -0.86000
O472        O  0.34917716  0.80680229  0.73411364    -0.85700
O473        O  0.31596456  0.84237130  0.64362186    -0.72500
O474        O  0.29142958  0.80112227  0.70418659    -0.84600
Zr475      Zr  0.34065862  0.88690155  0.77016594     2.26400
Zr476      Zr  0.36185639  0.88949665  0.64879099     2.06300
Zr477      Zr  0.30756217  0.80059547  0.77793162     2.10000
Zr478      Zr  0.39410642  0.85447835  0.73846772     1.78800
O479        O  0.25531647  0.77500444  0.80674437    -0.93400
O480        O  0.44265035  0.88672235  0.70011385    -0.41200
O481        O  0.35346181  0.84782444  0.78524826    -0.77900
O482        O  0.38144203  0.89331803  0.72222197    -0.96600
O483        O  0.32253820  0.88576786  0.69699632    -0.89900
O484        O  0.29454163  0.83972460  0.76618802    -0.92700
C485        C  0.39617116  0.79650452  0.68890867     1.01100
C486        C  0.28690262  0.73873026  0.71320916     1.14000
C487        C  0.35578055  0.84767142  0.56035197     1.04800
O488        O  0.41701168  0.92157775  0.64368248    -0.94900
O489        O  0.34713627  0.92516088  0.66986789    -0.90600
O490        O  0.36794478  0.93832572  0.73523073    -0.83700
C491        C  0.36426759  0.94541455  0.69522602     1.11400
O492        O  0.23999154  0.81154437  0.63835889    -0.96800
Zr493      Zr  0.27709078  0.83980302  0.69334986     1.88900
O494        O  0.29868555  0.89523257  0.78552279    -0.73500
O495        O  0.37171680  0.92924985  0.59185268    -0.52700
O496        O  0.26919792  0.87249705  0.63912478    -0.97400
O497        O  0.22782162  0.80067329  0.72307164    -0.54600
O498        O  0.26053582  0.86851290  0.73867405    -0.74000
C499        C  0.27204350  0.88652595  0.77029622     0.98400
O500        O  0.36960000  0.92400755  0.82346745    -0.62800
O501        O  0.32026115  0.76951235  0.82856290    -0.57600
O502        O  0.33665120  0.86967508  0.84754221    -0.94300
O503        O  0.31457178  0.81855304  0.85125664    -0.92700
O504        O  0.40808989  0.83297380  0.80254680    -0.93100
O505        O  0.42936049  0.89077379  0.78832408    -0.91900
C506        C  0.32599352  0.84392083  0.86903929     1.17200
H507        H  0.35271898  0.79022270  0.74241787     0.33100
H508        H  0.39932132  0.91263586  0.72544068     0.44000
H509        H  0.27963049  0.83714422  0.78812286     0.37500
H510        H  0.30792102  0.84015665  0.61425709     0.34000
H511        H  0.45709340  0.88114721  0.71466247     0.25800
H512        H  0.38886359  0.93127844  0.57367594     0.31700
H513        H  0.28112910  0.87361037  0.61273793     0.37600
H514        H  0.39242558  0.81140032  0.80466313     0.32100
H515        H  0.30040359  0.75387044  0.84149009     0.31000
H516        H  0.25540867  0.78668974  0.83161644     0.32700
H517        H  0.22690750  0.80598707  0.75359723     0.31600
H518        H  0.41765479  0.89946530  0.80121266     0.35600
H519        H  0.39079529  0.93505644  0.81165567     0.28300
H520        H  0.31439446  0.76700120  0.58849666     0.32600
H521        H  0.24530182  0.79606721  0.63066966     0.35400
H522        H  0.32675731  0.75851017  0.80958124     0.28000
H523        H  0.36218906  0.93879353  0.82086406     0.40900
H524        H  0.42035559  0.94234347  0.64438674     0.31000
H525        H  0.44006267  0.87899807  0.67035329     0.38600
H526        H  0.22982536  0.78229392  0.72665985     0.30400
H527        H  0.35376940  0.92084266  0.57254279     0.30500
H528        H  0.29462191  0.78328554  0.58575431     0.30800
Zr529      Zr  0.20407159  0.53261651  0.18880873     2.17500
O530        O  0.24160775  0.53351793  0.13771873    -0.51600
O531        O  0.22234507  0.58729568  0.17945319    -0.74800
O532        O  0.18762171  0.52659036  0.11251248    -0.81600
O533        O  0.25881599  0.54766118  0.28089497    -0.83300
O534        O  0.13833079  0.48936574  0.11352218    -0.78900
O535        O  0.25685713  0.55474779  0.20653317    -0.90600
O536        O  0.18893210  0.59750410  0.21408797    -0.76500
O537        O  0.15616837  0.53105968  0.18740223    -0.86000
O538        O  0.20133847  0.55347668  0.25539973    -0.85700
O539        O  0.16777293  0.47947515  0.18841363    -0.72500
O540        O  0.20846376  0.50068552  0.24740601    -0.84600
Zr541      Zr  0.11893431  0.47093933  0.31394517     2.26400
Zr542      Zr  0.11974832  0.47859036  0.18856693     2.06300
Zr543      Zr  0.20637542  0.52272516  0.31310989     2.10000
Zr544      Zr  0.15305072  0.55182002  0.25396689     1.78800
O545        O  0.23040565  0.49787604  0.35497045    -0.93400
O546        O  0.12241667  0.56547610  0.20484582    -0.41200
O547        O  0.15836170  0.52251652  0.31420817    -0.77900
O548        O  0.11399784  0.50061867  0.25280081    -0.96600
O549        O  0.12248916  0.44818057  0.24979669    -0.89900
O550        O  0.16684425  0.47119463  0.31604779    -0.92700
C551        C  0.21354701  0.60549480  0.19238907     1.01100
C552        C  0.27150328  0.55725977  0.24209929     1.14000
C553        C  0.16310811  0.50831387  0.09348117     1.04800
O554        O  0.08347067  0.49594928  0.16970750    -0.94900
O555        O  0.08322613  0.43204335  0.22532780    -0.90600
O556        O  0.06769703  0.44622600  0.28193155    -0.83700
C557        C  0.06187995  0.43268016  0.24597207     1.11400
O558        O  0.20006286  0.43554414  0.20585634    -0.96800
Zr559      Zr  0.16936875  0.44860486  0.25147507     1.88900
O560        O  0.10676624  0.42154268  0.34328854    -0.73500
O561        O  0.08568060  0.44133677  0.13850940    -0.52700
O562        O  0.13936466  0.40576293  0.20738578    -0.97400
O563        O  0.20705926  0.43987682  0.29124803    -0.54600
O564        O  0.13704419  0.40814379  0.30722524    -0.74000
C565        C  0.11615460  0.40302578  0.33614612     0.98400
O566        O  0.08028472  0.46742492  0.36504614    -0.62800
O567        O  0.23780276  0.56966412  0.34820543    -0.57600
O568        O  0.13438515  0.48867118  0.38747036    -0.94300
O569        O  0.18604497  0.51725531  0.38722919    -0.92700
O570        O  0.17189756  0.59031865  0.30743908    -0.93100
O571        O  0.11314603  0.55310168  0.29667474    -0.91900
C572        C  0.15974337  0.50472138  0.40664299     1.17200
H573        H  0.21797906  0.57353997  0.25866537     0.33100
H574        H  0.09447865  0.49980954  0.25359820     0.44000
H575        H  0.16848285  0.46064161  0.34258243     0.37500
H576        H  0.17042932  0.47147126  0.16185816     0.34000
H577        H  0.12750571  0.58597994  0.21249340     0.25800
H578        H  0.08034518  0.45237998  0.11531509     0.31700
H579        H  0.13870347  0.38830743  0.22462897     0.37600
H580        H  0.19428954  0.59868119  0.30694507     0.32100
H581        H  0.22329236  0.57607058  0.35801037     0.31000
H582        H  0.24541582  0.51348389  0.37359135     0.32700
H583        H  0.20082935  0.43709288  0.32272298     0.31600
H584        H  0.10587546  0.53549489  0.31824381     0.35600
H585        H  0.06983794  0.47713001  0.34881265     0.28300
H586        H  0.24483788  0.54898144  0.11381907     0.32600
H587        H  0.21027839  0.45285152  0.18388371     0.35400
H588        H  0.24473663  0.56372226  0.37584544     0.28000
H589        H  0.06494179  0.44576600  0.36822218     0.40900
H590        H  0.09072781  0.50706181  0.14058369     0.31000
H591        H  0.13164223  0.56843372  0.17510304     0.38600
H592        H  0.22607973  0.45953080  0.28873621     0.30400
H593        H  0.09812275  0.43430032  0.12338068     0.30500
H594        H  0.23128157  0.51404373  0.12368679     0.30800
Zr595      Zr  0.20318554  0.53837677  0.69000620     2.17500
O596        O  0.24211330  0.54312840  0.63811530    -0.51600
O597        O  0.22257241  0.59317121  0.68054996    -0.74800
O598        O  0.18719429  0.53460911  0.61314473    -0.81600
O599        O  0.25763065  0.54065897  0.78039116    -0.83300
O600        O  0.13559530  0.50985949  0.61420878    -0.78900
O601        O  0.25495615  0.55266702  0.70792101    -0.90600
O602        O  0.19838597  0.60490449  0.73182687    -0.76500
O603        O  0.16040164  0.54570659  0.69772891    -0.86000
O604        O  0.20599148  0.55589264  0.76163170    -0.85700
O605        O  0.16075545  0.48832871  0.68414073    -0.72500
O606        O  0.20230714  0.49929007  0.74041188    -0.84600
Zr607      Zr  0.11581726  0.47468999  0.81249046     2.26400
Zr608      Zr  0.11824064  0.49681015  0.69019407     2.06300
Zr609      Zr  0.20537637  0.51773385  0.81138014     2.10000
Zr610      Zr  0.16168569  0.56073025  0.77098795     1.78800
O611        O  0.22814367  0.48786437  0.84080954    -0.93400
O612        O  0.13516174  0.58588728  0.73725862    -0.41200
O613        O  0.16067032  0.52265039  0.82079559    -0.77900
O614        O  0.11754183  0.51381316  0.76219123    -0.96600
O615        O  0.11507109  0.45758754  0.74128860    -0.89900
O616        O  0.16066722  0.46945208  0.80838421    -0.92700
C617        C  0.21773822  0.61201709  0.70061286     1.01100
C618        C  0.26989045  0.55179385  0.74185974     1.14000
C619        C  0.16142323  0.52260547  0.59376850     1.04800
O620        O  0.09404045  0.52274679  0.65188286    -0.94900
O621        O  0.07010714  0.47928695  0.72571259    -0.90600
O622        O  0.06644284  0.44357505  0.77472520    -0.83700
C623        C  0.05550431  0.45245085  0.74193237     1.11400
O624        O  0.18075941  0.43689202  0.68045348    -0.96800
Zr625      Zr  0.15775968  0.45013499  0.73894176     1.88900
O626        O  0.10115745  0.42439718  0.84071567    -0.73500
O627        O  0.08589196  0.45218381  0.65063989    -0.52700
O628        O  0.12130851  0.40842519  0.69741683    -0.97400
O629        O  0.19432643  0.43512516  0.76693013    -0.54600
O630        O  0.12661455  0.40952314  0.79644061    -0.74000
C631        C  0.10846563  0.40500611  0.82951639     0.98400
O632        O  0.07836245  0.47872847  0.85722880    -0.62800
O633        O  0.23792042  0.56105371  0.85331109    -0.57600
O634        O  0.13461162  0.48340742  0.88778464    -0.94300
O635        O  0.18662590  0.50615216  0.88681896    -0.92700
O636        O  0.19110591  0.59278874  0.82936758    -0.93100
O637        O  0.12885358  0.56673450  0.82285682    -0.91900
C638        C  0.16069661  0.49478234  0.90682497     1.17200
H639        H  0.22449181  0.57460625  0.76521381     0.33100
H640        H  0.10078838  0.51737373  0.76806151     0.44000
H641        H  0.16148043  0.45654108  0.83236157     0.37500
H642        H  0.16114110  0.48124685  0.65556017     0.34000
H643        H  0.14569621  0.60639944  0.74814887     0.25800
H644        H  0.07640239  0.45918492  0.62734698     0.31700
H645        H  0.10156717  0.40793334  0.70142156     0.37600
H646        H  0.19124678  0.61207402  0.82228938     0.32100
H647        H  0.22372117  0.56540231  0.86950408     0.31000
H648        H  0.22326514  0.48451335  0.87280795     0.32700
H649        H  0.19174264  0.43337986  0.79942729     0.31600
H650        H  0.12583235  0.55212995  0.84797209     0.35600
H651        H  0.06710750  0.48497122  0.83591673     0.28300
H652        H  0.24731410  0.56154694  0.61911141     0.32600
H653        H  0.19759657  0.45642924  0.66844002     0.35400
H654        H  0.24678786  0.55321222  0.87639729     0.28000
H655        H  0.06353162  0.45766011  0.86692827     0.40900
H656        H  0.10719874  0.54419993  0.65772779     0.31000
H657        H  0.14084349  0.58896116  0.70551754     0.38600
H658        H  0.21457272  0.45307964  0.76098217     0.30400
H659        H  0.10026026  0.44803122  0.63451580     0.30500
H660        H  0.23202918  0.52619112  0.61864527     0.30800
Zr661      Zr  0.47155897  0.66952603  0.17907477     2.17500
O662        O  0.44763842  0.68562946  0.12077267    -0.51600
O663        O  0.41762325  0.62893890  0.19196309    -0.74800
O664        O  0.47983039  0.65941029  0.10377935    -0.81600
O665        O  0.46497278  0.72133201  0.25862389    -0.83300
O666        O  0.51869172  0.64893199  0.10305615    -0.78900
O667        O  0.45502415  0.70600089  0.18885761    -0.90600
O668        O  0.41483676  0.59490090  0.24583560    -0.76500
O669        O  0.47836654  0.62683093  0.19247089    -0.86000
O670        O  0.45866526  0.65459509  0.25501598    -0.85700
O671        O  0.52560656  0.68942364  0.16490493    -0.72500
O672        O  0.50669926  0.71246398  0.21887070    -0.84600
Zr673      Zr  0.55070281  0.66848580  0.29924105     2.26400
Zr674      Zr  0.53177193  0.64588581  0.17958874     2.06300
Zr675      Zr  0.49225879  0.69700389  0.29435364     2.10000
Zr676      Zr  0.46591826  0.61181096  0.26882475     1.78800
O677        O  0.51757916  0.74736865  0.32135044    -0.93400
O678        O  0.44955123  0.56421296  0.23532508    -0.41200
O679        O  0.49806100  0.65332376  0.31075280    -0.77900
O680        O  0.51821227  0.62683378  0.25530887    -0.96600
O681        O  0.56541859  0.68594716  0.22415692    -0.89900
O682        O  0.54529079  0.71242541  0.28545253    -0.92700
C683        C  0.40233742  0.60535622  0.21856281     1.01100
C684        C  0.45395454  0.72127743  0.21999216     1.14000
C685        C  0.49862053  0.65375969  0.08362166     1.04800
O686        O  0.51198754  0.59168274  0.18194566    -0.94900
O687        O  0.58290989  0.66402229  0.20518567    -0.90600
O688        O  0.57629151  0.64167837  0.27162732    -0.83700
C689        C  0.58645329  0.64586441  0.23177257     1.11400
O690        O  0.56580247  0.76666837  0.15248230    -0.96800
Zr691      Zr  0.56036671  0.72910271  0.21066936     1.88900
O692        O  0.60017354  0.71160570  0.30829462    -0.73500
O693        O  0.56337504  0.63724555  0.12862272    -0.52700
O694        O  0.59740353  0.73619048  0.15379251    -0.97400
O695        O  0.56742959  0.77653982  0.23573851    -0.54600
O696        O  0.60801375  0.74723842  0.25340814    -0.74000
C697        C  0.61661495  0.73718772  0.28771036     0.98400
O698        O  0.56725897  0.64728833  0.36084607    -0.62800
O699        O  0.44502680  0.68270337  0.33457389    -0.57600
O700        O  0.53190372  0.66888268  0.37354451    -0.94300
O701        O  0.50075947  0.68951538  0.37142781    -0.92700
O702        O  0.43463017  0.59817939  0.33563789    -0.93100
O703        O  0.47283556  0.57842025  0.32300404    -0.91900
C704        C  0.51505445  0.67776959  0.39238698     1.17200
H705        H  0.43836693  0.65045589  0.26270745     0.33100
H706        H  0.52118861  0.60968944  0.26196348     0.44000
H707        H  0.55725878  0.72770654  0.30551447     0.37500
H708        H  0.53106039  0.69762041  0.13484436     0.34000
H709        H  0.46581529  0.55901529  0.24190226     0.25800
H710        H  0.54927794  0.61971780  0.11216345     0.31700
H711        H  0.61396227  0.73475197  0.16985879     0.37600
H712        H  0.42743930  0.61310512  0.33559858     0.32100
H713        H  0.44204703  0.66584413  0.35567584     0.31000
H714        H  0.50097039  0.74967682  0.33437306     0.32700
H715        H  0.57526953  0.77766193  0.26605118     0.31600
H716        H  0.49118797  0.59192765  0.33935305     0.35600
H717        H  0.55749320  0.62546770  0.35642986     0.28300
H718        H  0.43442050  0.66757658  0.10457432     0.32600
H719        H  0.58740327  0.78269576  0.15305498     0.35400
H720        H  0.44998734  0.69971202  0.35316226     0.28000
H721        H  0.58928268  0.65500723  0.35531816     0.40900
H722        H  0.49819679  0.58492563  0.15650902     0.31000
H723        H  0.43187788  0.54923397  0.25367531     0.38600
H724        H  0.54651538  0.77332197  0.23971211     0.30400
H725        H  0.57182351  0.65464314  0.10658375     0.30500
H726        H  0.46413804  0.69934716  0.09962950     0.30800
Zr727      Zr  0.47140429  0.67112582  0.67892258     2.17500
O728        O  0.44857922  0.68874019  0.62099233    -0.51600
O729        O  0.41687576  0.63187086  0.68854099    -0.74800
O730        O  0.48083744  0.66215545  0.60322808    -0.81600
O731        O  0.46369628  0.72005897  0.76199543    -0.83300
O732        O  0.51981431  0.65190119  0.60279695    -0.78900
O733        O  0.45639788  0.70858894  0.69025892    -0.90600
O734        O  0.41394591  0.59609265  0.73932377    -0.76500
O735        O  0.47707366  0.62760617  0.69066171    -0.86000
O736        O  0.45764719  0.65474558  0.75455653    -0.85700
O737        O  0.52530250  0.69001775  0.66568845    -0.72500
O738        O  0.50627616  0.71258788  0.72134975    -0.84600
Zr739      Zr  0.54922478  0.66624574  0.79901333     2.26400
Zr740      Zr  0.53044784  0.64574977  0.67918205     2.06300
Zr741      Zr  0.49146790  0.69572014  0.79646430     2.10000
Zr742      Zr  0.46393857  0.61132362  0.76647233     1.78800
O743        O  0.51777879  0.74665397  0.82136875    -0.93400
O744        O  0.45024460  0.56407745  0.73362295    -0.41200
O745        O  0.49657072  0.65149779  0.81034694    -0.77900
O746        O  0.51621566  0.62565789  0.75412564    -0.96600
O747        O  0.56438280  0.68497083  0.72457039    -0.89900
O748        O  0.54427023  0.71060054  0.78731493    -0.92700
C749        C  0.40153164  0.60745245  0.71331167     1.01100
C750        C  0.45424340  0.72221855  0.72288543     1.14000
C751        C  0.50003241  0.65697721  0.58308076     1.04800
O752        O  0.50887010  0.59125833  0.68129868    -0.94900
O753        O  0.58190681  0.66274957  0.70210238    -0.90600
O754        O  0.57489707  0.64009310  0.76854209    -0.83700
C755        C  0.58527343  0.64447537  0.72867400     1.11400
O756        O  0.56413610  0.76552606  0.65433075    -0.96800
Zr757      Zr  0.55967114  0.72854235  0.71286462     1.88900
O758        O  0.59843692  0.70945342  0.80965308    -0.73500
O759        O  0.55953598  0.63322323  0.62936211    -0.52700
O760        O  0.59782966  0.73605188  0.65758884    -0.97400
O761        O  0.56785023  0.77630496  0.73821865    -0.54600
O762        O  0.60654898  0.74610520  0.75629729    -0.74000
C763        C  0.61482529  0.73548222  0.79017452     0.98400
O764        O  0.56434463  0.64227850  0.85864540    -0.62800
O765        O  0.44709440  0.68182795  0.84360313    -0.57600
O766        O  0.53121897  0.66551406  0.87428413    -0.94300
O767        O  0.50110702  0.68738776  0.87309682    -0.92700
O768        O  0.42915507  0.59533300  0.82978977    -0.93100
O769        O  0.46871841  0.57735317  0.82202587    -0.91900
C770        C  0.51500801  0.67494060  0.89352771     1.17200
H771        H  0.43732086  0.65062069  0.76180704     0.33100
H772        H  0.51888291  0.60828887  0.76032325     0.44000
H773        H  0.55622268  0.72548932  0.80794303     0.37500
H774        H  0.53132578  0.69896035  0.63606196     0.34000
H775        H  0.43257409  0.54865301  0.75152585     0.25800
H776        H  0.54446975  0.61701286  0.61166892     0.31700
H777        H  0.61774795  0.74790236  0.67168257     0.37600
H778        H  0.42755371  0.61336120  0.83583045     0.32100
H779        H  0.44920120  0.70122841  0.85180085     0.31000
H780        H  0.50273185  0.74779870  0.84065621     0.32700
H781        H  0.57396400  0.77638656  0.76936761     0.31600
H782        H  0.48653974  0.59062082  0.83949843     0.35600
H783        H  0.55392094  0.62065258  0.85273237     0.28300
H784        H  0.43560573  0.67111383  0.60384181     0.32600
H785        H  0.58577009  0.78153252  0.65400528     0.35400
H786        H  0.42939363  0.67361329  0.82383937     0.28000
H787        H  0.58626032  0.64942873  0.85313250     0.40900
H788        H  0.49438512  0.58485152  0.65662998     0.31000
H789        H  0.44152753  0.56549540  0.70470424     0.38600
H790        H  0.54722347  0.77416244  0.73982995     0.30400
H791        H  0.57028684  0.65104738  0.60842338     0.30500
H792        H  0.46547854  0.70278662  0.60065495     0.30800
Zr793      Zr  0.22908722  0.02234606  0.86280841     2.17500
O794        O  0.26757171  0.05195437  0.80568997    -0.51600
O795        O  0.23557329  0.97926231  0.84843021    -0.74800
O796        O  0.28202154  0.04814238  0.89337196    -0.81600
O797        O  0.16072259  0.00162663  0.78570394    -0.83300
O798        O  0.27847274  0.05987248  0.96331054    -0.78900
O799        O  0.21234515  0.02130998  0.78620083    -0.90600
O800        O  0.20568994  0.94030786  0.89693876    -0.76500
O801        O  0.22590978  0.00339358  0.93721080    -0.86000
O802        O  0.18076627  0.97688378  0.87072880    -0.85700
O803        O  0.23228971  0.06132927  0.90670979    -0.72500
O804        O  0.18905450  0.03467350  0.84952358    -0.84600
Zr805      Zr  0.14214385  0.01202407  0.97755574     2.26400
Zr806      Zr  0.22639857  0.04104313  0.98132705     2.06300
Zr807      Zr  0.14082266  0.98921067  0.86062651     2.10000
Zr808      Zr  0.17854893  0.95802756  0.94444364     1.78800
O809        O  0.10818259  0.99906085  0.81017640    -0.93400
O810        O  0.20970123  0.94775190  0.99736444    -0.41200
O811        O  0.13853689  0.97129547  0.93574461    -0.77900
O812        O  0.17923087  0.99522919  0.99093327    -0.96600
O813        O  0.18956753  0.05719845  0.96805934    -0.89900
O814        O  0.14474135  0.02881337  0.90183499    -0.92700
C815        C  0.22470491  0.95182034  0.86383466     1.01100
C816        C  0.18686894  0.01300046  0.76624433     1.14000
C817        C  0.29376701  0.05995950  0.93029699     1.04800
O818        O  0.25233419  0.02470191  0.03557261    -0.94900
O819        O  0.20926817  0.03814609  0.05543443    -0.90600
O820        O  0.15809582  0.01888522  0.05569320    -0.83700
C821        C  0.18375065  0.02838361  0.07563901     1.11400
O822        O  0.23205078  0.11356050  0.84430010    -0.96800
Zr823      Zr  0.19278360  0.07377795  0.89228151     1.88900
O824        O  0.12181898  0.04773371  0.96239101    -0.73500
O825        O  0.25231090  0.09307219  0.00197763    -0.52700
O826        O  0.22135842  0.11899749  0.93239188    -0.97400
O827        O  0.17470781  0.08757782  0.82450905    -0.54600
O828        O  0.15405958  0.08501752  0.91389019    -0.74000
C829        C  0.12955466  0.07194545  0.93723039     0.98400
O830        O  0.10786660  0.99910991  0.04102980    -0.62800
O831        O  0.11977196  0.93843572  0.83594357    -0.57600
O832        O  0.09116557  0.97305534  0.96329618    -0.94300
O833        O  0.08794521  0.96623819  0.89006473    -0.92700
O834        O  0.13820753  0.91102248  0.91829092    -0.93100
O835        O  0.15030075  0.92084283  0.00432182    -0.91900
C836        C  0.07575128  0.96205633  0.92884591     1.17200
H837        H  0.17841879  0.96265545  0.84948938     0.33100
H838        H  0.17710789  0.98685064  0.02036342     0.44000
H839        H  0.12773354  0.03133693  0.89217788     0.37500
H840        H  0.25179240  0.07931610  0.90208979     0.34000
H841        H  0.22745379  0.95041624  0.97998406     0.25800
H842        H  0.26697123  0.09386466  0.02469346     0.31700
H843        H  0.21415003  0.13295263  0.92073644     0.37600
H844        H  0.11905935  0.91129388  0.92437807     0.32100
H845        H  0.09984344  0.92673877  0.85155416     0.31000
H846        H  0.11746595  0.02127083  0.80765411     0.32700
H847        H  0.15224108  0.07724131  0.82811151     0.31600
H848        H  0.13431881  0.92563519  0.01292830     0.35600
H849        H  0.09157600  0.00352501  0.03093069     0.28300
H850        H  0.28216912  0.04417196  0.80717268     0.32600
H851        H  0.24004228  0.10309275  0.82681564     0.35400
H852        H  0.11454509  0.94015440  0.80472560     0.28000
H853        H  0.09768468  0.97690530  0.04598536     0.40900
H854        H  0.26642815  0.04305479  0.05055067     0.31000
H855        H  0.21817552  0.96502826  0.01632735     0.38600
H856        H  0.17831101  0.07677393  0.80137646     0.30400
H857        H  0.26521611  0.10493433  0.97600056     0.30500
H858        H  0.27896941  0.07252494  0.81621343     0.30800
Zr859      Zr  0.23257993  0.02105886  0.36405975     2.17500
O860        O  0.27121845  0.04930828  0.30662586    -0.51600
O861        O  0.24238103  0.97956712  0.35289854    -0.74800
O862        O  0.28521746  0.04983803  0.39498011    -0.81600
O863        O  0.16408344  0.99779729  0.28654798    -0.83300
O864        O  0.28128294  0.06227653  0.46433382    -0.78900
O865        O  0.21597766  0.02163386  0.28697843    -0.90600
O866        O  0.21157589  0.93991497  0.39991786    -0.76500
O867        O  0.22985387  0.00278384  0.43880916    -0.86000
O868        O  0.18536929  0.97421448  0.37235343    -0.85700
O869        O  0.23381249  0.05941030  0.40758830    -0.72500
O870        O  0.19084417  0.03061021  0.35010360    -0.84600
Zr871      Zr  0.14409821  0.00699748  0.47805683     2.26400
Zr872      Zr  0.22873428  0.03978266  0.48252283     2.06300
Zr873      Zr  0.14377854  0.98405252  0.36130467     2.10000
Zr874      Zr  0.18357588  0.95627441  0.44677060     1.78800
O875        O  0.11042222  0.99277453  0.31077038    -0.93400
O876        O  0.21640274  0.94828317  0.49931449    -0.41200
O877        O  0.14209815  0.96695312  0.43667972    -0.77900
O878        O  0.18281101  0.99282989  0.49272901    -0.96600
O879        O  0.19024865  0.05341178  0.46786652    -0.89900
O880        O  0.14565672  0.02303604  0.40222655    -0.92700
C881        C  0.23162034  0.95216887  0.36837560     1.01100
C882        C  0.19027739  0.01182097  0.26688546     1.14000
C883        C  0.29678867  0.06256207  0.43144166     1.04800
O884        O  0.25588481  0.02374537  0.53496483    -0.94900
O885        O  0.21052202  0.03604512  0.55636976    -0.90600
O886        O  0.15937932  0.01754717  0.55509557    -0.83700
C887        C  0.18473909  0.02693552  0.57551678     1.11400
O888        O  0.23057988  0.10783612  0.34117825    -0.96800
Zr889      Zr  0.19259831  0.06911952  0.39187949     1.88900
O890        O  0.12200092  0.04084925  0.46576886    -0.73500
O891        O  0.25163976  0.09113263  0.50557534    -0.52700
O892        O  0.21952765  0.11728306  0.42540057    -0.97400
O893        O  0.17186720  0.07865946  0.32350867    -0.54600
O894        O  0.15314978  0.07838153  0.41657474    -0.74000
C895        C  0.12891500  0.06473303  0.44059898     0.98400
O896        O  0.11074912  0.98771675  0.54342514    -0.62800
O897        O  0.12468376  0.93340927  0.33700053    -0.57600
O898        O  0.09317436  0.96902383  0.46245225    -0.94300
O899        O  0.09073167  0.95863314  0.39058393    -0.92700
O900        O  0.14458783  0.90740072  0.42398307    -0.93100
O901        O  0.15542305  0.91943717  0.50705206    -0.91900
C902        C  0.07827407  0.95596359  0.42871735     1.17200
H903        H  0.18383650  0.96012580  0.35134031     0.33100
H904        H  0.18082467  0.98467370  0.52283915     0.44000
H905        H  0.12811275  0.02484189  0.39318436     0.37500
H906        H  0.25275954  0.07800027  0.40273476     0.34000
H907        H  0.23709106  0.95949031  0.48573403     0.25800
H908        H  0.26790506  0.09303633  0.52605898     0.31700
H909        H  0.21103133  0.12956911  0.41132228     0.37600
H910        H  0.15175315  0.90522357  0.39495419     0.32100
H911        H  0.11028386  0.92002687  0.36074239     0.31000
H912        H  0.09730386  0.97308699  0.29828229     0.32700
H913        H  0.16848139  0.09573244  0.32902160     0.31600
H914        H  0.13894237  0.92376189  0.51471456     0.35600
H915        H  0.09355723  0.99153953  0.53680617     0.28300
H916        H  0.28644217  0.04238489  0.31028520     0.32600
H917        H  0.23679122  0.09667549  0.32203093     0.35400
H918        H  0.11153398  0.93211976  0.31172283     0.28000
H919        H  0.10174400  0.96553068  0.54474929     0.40900
H920        H  0.26863446  0.04164401  0.55173754     0.31000
H921        H  0.21730083  0.95991097  0.52473292     0.38600
H922        H  0.15112689  0.06113750  0.32210953     0.30400
H923        H  0.26268022  0.10405555  0.47903724     0.30500
H924        H  0.28181600  0.07041034  0.31518640     0.30800
Zr925      Zr  0.01051256  0.22440589  0.99607560     2.17500
O926        O  0.03766702  0.26270289  0.04855531    -0.51600
O927        O  0.97025366  0.23491454  0.01557821    -0.74800
O928        O  0.04258328  0.27617303  0.95856063    -0.81600
O929        O  0.98759562  0.15700288  0.07932753    -0.83300
O930        O  0.05357408  0.27196624  0.88784847    -0.78900
O931        O  0.01493304  0.20815214  0.07273180    -0.90600
O932        O  0.93093515  0.21083402  0.96934793    -0.76500
O933        O  0.98949701  0.22267158  0.92478112    -0.86000
O934        O  0.96204920  0.17856731  0.99741124    -0.85700
O935        O  0.04704176  0.22463858  0.94608513    -0.72500
O936        O  0.01862173  0.18206681  0.01058423    -0.84600
Zr937      Zr  0.98946501  0.13660389  0.88720257     2.26400
Zr938      Zr  0.02475467  0.22030136  0.87482282     2.06300
Zr939      Zr  0.97067469  0.13628001  0.00799811     2.10000
Zr940      Zr  0.94162605  0.17754561  0.92644034     1.78800
O941        O  0.97807701  0.10295347  0.06161651    -0.93400
O942        O  0.93031720  0.20557154  0.86823123    -0.41200
O943        O  0.95093855  0.13535893  0.93572433    -0.77900
O944        O  0.97616178  0.17586314  0.87388338    -0.96600
O945        O  0.03721147  0.18122114  0.88905437    -0.89900
O946        O  0.00811639  0.13735138  0.95994980    -0.92700
C947        C  0.94387648  0.22836917  0.00087139     1.01100
C948        C  0.00394555  0.18270548  0.09561048     1.14000
C949        C  0.05583878  0.28749250  0.92024546     1.04800
O950        O  0.01262370  0.25158493  0.82373901    -0.94900
O951        O  0.01748648  0.20478376  0.80095501    -0.90600
O952        O  0.99821782  0.15425190  0.80829109    -0.83700
C953        C  0.00777576  0.17930152  0.78469570     1.11400
O954        O  0.09573590  0.21999326  0.00616381    -0.96800
Zr955      Zr  0.05543339  0.18300244  0.96233277     1.88900
O956        O  0.02560230  0.11654010  0.89107172    -0.73500
O957        O  0.07426581  0.23464231  0.84225580    -0.52700
O958        O  0.10439361  0.20983635  0.92323086    -0.97400
O959        O  0.06306226  0.15738049  0.02778065    -0.54600
O960        O  0.06471330  0.14567193  0.93501674    -0.74000
C961        C  0.05094721  0.12356264  0.91071996     0.98400
O962        O  0.96827636  0.10325749  0.82677790    -0.62800
O963        O  0.91954558  0.11773063  0.03830770    -0.57600
O964        O  0.95142182  0.08601798  0.91194278    -0.94300
O965        O  0.94715422  0.08342277  0.98637752    -0.92700
O966        O  0.89459348  0.14180140  0.96583949    -0.93100
O967        O  0.89865422  0.14815718  0.87987033    -0.91900
C968        C  0.94169480  0.07095771  0.94909462     1.17200
H969        H  0.94863323  0.17764089  0.02059313     0.33100
H970        H  0.96693600  0.17433371  0.84537027     0.44000
H971        H  0.01012827  0.11987671  0.96822665     0.37500
H972        H  0.06654249  0.24270906  0.94737825     0.34000
H973        H  0.91801624  0.21295710  0.88289217     0.25800
H974        H  0.07735390  0.25008417  0.81842845     0.31700
H975        H  0.10042976  0.20174104  0.89361077     0.37600
H976        H  0.89209236  0.15312530  0.98923805     0.32100
H977        H  0.90741065  0.09731718  0.02749819     0.31000
H978        H  0.95827315  0.09130520  0.07763970     0.32700
H979        H  0.08521169  0.16434032  0.02805140     0.31600
H980        H  0.90572548  0.13713265  0.86190986     0.35600
H981        H  0.97156104  0.08590818  0.83448567     0.28300
H982        H  0.03162213  0.27831027  0.04204378     0.32600
H983        H  0.08491750  0.22573125  0.02723585     0.35400
H984        H  0.92139928  0.11419993  0.07036314     0.28000
H985        H  0.94591993  0.09500374  0.82870443     0.40900
H986        H  0.00350227  0.26051771  0.84228958     0.31000
H987        H  0.95004130  0.22389060  0.86108967     0.38600
H988        H  0.05937277  0.16654181  0.05314723     0.30400
H989        H  0.08910290  0.24578861  0.86505556     0.30500
H990        H  0.05944565  0.27240044  0.03958541     0.30800
Zr991      Zr  0.01024020  0.22133411  0.49356070     2.17500
O992        O  0.03771610  0.25731135  0.54893005    -0.51600
O993        O  0.97157954  0.23621431  0.50159408    -0.74800
O994        O  0.04396261  0.27315624  0.45977995    -0.81600
O995        O  0.97797505  0.15122682  0.57721104    -0.83300
O996        O  0.05888053  0.27001856  0.39080137    -0.78900
O997        O  0.00489958  0.20237730  0.57135419    -0.90600
O998        O  0.93188495  0.20934977  0.45735070    -0.76500
O999        O  0.99585639  0.22179302  0.41874277    -0.86000
O1000       O  0.96114281  0.17732385  0.48883728    -0.85700
O1001       O  0.04959406  0.22069870  0.45066323    -0.72500
O1002       O  0.01572471  0.17784846  0.51204214    -0.84600
Zr1003     Zr  0.99387231  0.13427874  0.38701196     2.26400
Zr1004     Zr  0.03357770  0.21829180  0.37567588     2.06300
Zr1005     Zr  0.96721486  0.13371363  0.50346556     2.10000
Zr1006     Zr  0.94690595  0.17876075  0.41440143     1.78800
O1007       O  0.96763345  0.09782437  0.55970002    -0.93400
O1008       O  0.94592006  0.21495403  0.35893356    -0.41200
O1009       O  0.95318269  0.13478266  0.42814899    -0.77900
O1010       O  0.98422160  0.17557951  0.36923197    -0.96600
O1011       O  0.04248035  0.17729420  0.39432269    -0.89900
O1012       O  0.00710179  0.13336415  0.46245118    -0.92700
C1013       C  0.94513570  0.22903909  0.48633068     1.01100
C1014       C  0.99246273  0.17681195  0.59418277     1.14000
C1015       C  0.05892780  0.28494038  0.42291469     1.04800
O1016       O  0.02567693  0.24853452  0.31707860    -0.94900
O1017       O  0.03091948  0.20057785  0.30317748    -0.90600
O1018       O  0.00611594  0.14964361  0.30814552    -0.83700
C1019       C  0.01924513  0.17518963  0.28564559     1.11400
O1020       O  0.09118480  0.20974805  0.52359795    -0.96800
Zr1021     Zr  0.05503513  0.17764986  0.47044961     1.88900
O1022       O  0.03069009  0.11531538  0.39270780    -0.73500
O1023       O  0.08695104  0.23738986  0.35580964    -0.52700
O1024       O  0.10646665  0.20758431  0.43948745    -0.97400
O1025       O  0.05879444  0.15111026  0.53783226    -0.54600
O1026       O  0.06603354  0.14103013  0.44378454    -0.74000
C1027       C  0.05410707  0.12060957  0.41636296     0.98400
O1028       O  0.96840008  0.10077141  0.32813934    -0.62800
O1029       O  0.91441727  0.11797168  0.52262989    -0.57600
O1030       O  0.95816522  0.08302356  0.41280529    -0.94300
O1031       O  0.94387823  0.08093113  0.48374703    -0.92700
O1032       O  0.89548134  0.14140914  0.43889370    -0.93100
O1033       O  0.91161084  0.15689337  0.35448755    -0.91900
C1034       C  0.94355689  0.06828726  0.44819906     1.17200
H1035       H  0.94654684  0.17694117  0.50956303     0.33100
H1036       H  0.97730819  0.17480139  0.33930555     0.44000
H1037       H  0.00814311  0.11535902  0.47127011     0.37500
H1038       H  0.06901994  0.23851157  0.45441220     0.34000
H1039       H  0.95522691  0.23433036  0.37323989     0.25800
H1040       H  0.08760560  0.22045193  0.34262282     0.31700
H1041       H  0.10596753  0.19885607  0.41108055     0.37600
H1042       H  0.88479069  0.15306721  0.44276419     0.32100
H1043       H  0.90376758  0.09572030  0.52278294     0.31000
H1044       H  0.94643479  0.08668082  0.57151037     0.32700
H1045       H  0.07142189  0.14209940  0.52971838     0.31600
H1046       H  0.91490819  0.14032136  0.34569535     0.35600
H1047       H  0.97263088  0.08378009  0.33287121     0.28300
H1048       H  0.03295172  0.27387314  0.54319134     0.32600
H1049       H  0.07941407  0.21643407  0.54115995     0.35400
H1050       H  0.91487529  0.12221462  0.55408604     0.28000
H1051       H  0.94623447  0.09201935  0.33380419     0.40900
H1052       H  0.04585610  0.26075947  0.30222655     0.31000
H1053       H  0.96115758  0.21768367  0.33624410     0.38600
H1054       H  0.03807506  0.13373135  0.54303123     0.30400
H1055       H  0.09089707  0.25215555  0.33055965     0.30500
H1056       H  0.05956666  0.26620712  0.54080477     0.30800
Zr1057     Zr  0.87152293  0.87438633  0.99335236     2.17500
O1058       O  0.89340183  0.91449307  0.04459638    -0.51600
O1059       O  0.92756506  0.89355035  0.98411206    -0.74800
O1060       O  0.86182309  0.85688405  0.07265964    -0.81600
O1061       O  0.87323981  0.92765455  0.89653497    -0.83300
O1062       O  0.83379447  0.80599289  0.08004862    -0.78900
O1063       O  0.88049285  0.92458487  0.97005185    -0.90600
O1064       O  0.93398334  0.86242032  0.94069222    -0.76500
O1065       O  0.87182033  0.82792300  0.99206595    -0.86000
O1066       O  0.88566400  0.87193730  0.91981900    -0.85700
O1067       O  0.81880889  0.83651129  0.00838043    -0.72500
O1068       O  0.83313185  0.87672811  0.94662196    -0.84600
Zr1069     Zr  0.79795346  0.78793382  0.88528082     2.26400
Zr1070     Zr  0.81991731  0.79013312  0.00646892     2.06300
Zr1071     Zr  0.84890259  0.87534934  0.87352878     2.10000
Zr1072     Zr  0.88504266  0.82484193  0.91833015     1.78800
O1073       O  0.81900469  0.89611706  0.83771107    -0.93400
O1074       O  0.90365195  0.79634365  0.96379800    -0.41200
O1075       O  0.84891843  0.82830665  0.87049457    -0.77900
O1076       O  0.83445763  0.78495695  0.93420942    -0.96600
O1077       O  0.78216563  0.79039708  0.95750732    -0.89900
O1078       O  0.79777500  0.83497239  0.88575330    -0.92700
C1079       C  0.94449807  0.88622036  0.96194123     1.01100
C1080       C  0.88187841  0.93975369  0.93390148     1.14000
C1081       C  0.84783342  0.83172119  0.09625440     1.04800
O1082       O  0.84790598  0.76495167  0.03402313    -0.94900
O1083       O  0.78993151  0.73805847  0.99368380    -0.90600
O1084       O  0.77285214  0.73569415  0.92340211    -0.83700
C1085       C  0.77388489  0.72337626  0.96183584     1.11400
O1086       O  0.76915132  0.86202318  0.01275464    -0.96800
Zr1087     Zr  0.78122954  0.83642398  0.95777943     1.88900
O1088       O  0.74742887  0.78065701  0.86905637    -0.73500
O1089       O  0.77621150  0.76359213  0.05705563    -0.52700
O1090       O  0.74223587  0.80158883  0.01103097    -0.97400
O1091       O  0.77124413  0.87582943  0.92607971    -0.54600
O1092       O  0.73628976  0.80905321  0.91170322    -0.74000
C1093       C  0.72963715  0.79033329  0.88138804     0.98400
O1094       O  0.78768239  0.74980189  0.83312267    -0.62800
O1095       O  0.89455887  0.90804436  0.82901349    -0.57600
O1096       O  0.81524628  0.80562049  0.80751658    -0.94300
O1097       O  0.84129360  0.85689795  0.80035481    -0.92700
O1098       O  0.91813983  0.84421996  0.85293812    -0.93100
O1099       O  0.88523236  0.78707729  0.87324831    -0.91900
C1100       C  0.82971892  0.83099344  0.78422222     1.17200
H1101       H  0.90500747  0.88884277  0.91025806     0.33100
H1102       H  0.83403620  0.76590758  0.93263701     0.44000
H1103       H  0.78515746  0.83699276  0.86299159     0.37500
H1104       H  0.81213388  0.83836488  0.03710080     0.34000
H1105       H  0.88803953  0.77496820  0.96156795     0.25800
H1106       H  0.78249967  0.75317982  0.08004194     0.31700
H1107       H  0.72266969  0.79844014  0.99853230     0.37600
H1108       H  0.90494686  0.84504353  0.82897557     0.32100
H1109       H  0.90002754  0.89429168  0.81496142     0.31000
H1110       H  0.83214344  0.90954427  0.81289492     0.32700
H1111       H  0.76564443  0.87077894  0.89514266     0.31600
H1112       H  0.86651848  0.78005494  0.85560232     0.35600
H1113       H  0.79832994  0.73894533  0.84487897     0.28300
H1114       H  0.90674630  0.90999040  0.06424344     0.32600
H1115       H  0.74777153  0.85705873  0.00730445     0.35400
H1116       H  0.88752249  0.91675832  0.80454654     0.28000
H1117       H  0.76569535  0.73509266  0.83698225     0.40900
H1118       H  0.86519272  0.78014960  0.05037386     0.31000
H1119       H  0.92160574  0.79865659  0.94734623     0.38600
H1120       H  0.79145059  0.89424914  0.92376408     0.30400
H1121       H  0.77482213  0.77946850  0.07234824     0.30500
H1122       H  0.87635563  0.91184587  0.06369329     0.30800
Zr1123     Zr  0.87435956  0.87202551  0.49342819     2.17500
O1124       O  0.89764694  0.91189543  0.54489914    -0.51600
O1125       O  0.93026451  0.89001399  0.48315291    -0.74800
O1126       O  0.86556537  0.85408359  0.57258251    -0.81600
O1127       O  0.87572762  0.92548519  0.39787450    -0.83300
O1128       O  0.83572213  0.80336701  0.58045002    -0.78900
O1129       O  0.88341906  0.92247581  0.47127193    -0.90600
O1130       O  0.93528872  0.85882106  0.43836789    -0.76500
O1131       O  0.87382363  0.82525533  0.49110197    -0.86000
O1132       O  0.88767321  0.86965566  0.41946192    -0.85700
O1133       O  0.82152860  0.83454025  0.50909889    -0.72500
O1134       O  0.83530805  0.87461224  0.44828748    -0.84600
Zr1135     Zr  0.79890892  0.78674348  0.38567899     2.26400
Zr1136     Zr  0.82196515  0.78789514  0.50654516     2.06300
Zr1137     Zr  0.85050921  0.87356716  0.37476480     2.10000
Zr1138     Zr  0.88603341  0.82214948  0.41680652     1.78800
O1139       O  0.82219147  0.89714989  0.34233790    -0.93400
O1140       O  0.90531659  0.79453143  0.46299449    -0.41200
O1141       O  0.84996511  0.82636595  0.36951386    -0.77900
O1142       O  0.83546872  0.78299561  0.43351078    -0.96600
O1143       O  0.78369875  0.78845789  0.45879441    -0.89900
O1144       O  0.79931623  0.83384805  0.38774093    -0.92700
C1145       C  0.94663904  0.88220496  0.46049627     1.01100
C1146       C  0.88455976  0.93754632  0.43511540     1.14000
C1147       C  0.85100232  0.82909404  0.59644817     1.04800
O1148       O  0.85137185  0.76390772  0.53259807    -0.94900
O1149       O  0.79184039  0.73613294  0.49106821    -0.90600
O1150       O  0.77306724  0.73457603  0.42194798    -0.83700
C1151       C  0.77493286  0.72194499  0.45948572     1.11400
O1152       O  0.77389437  0.86092712  0.51716794    -0.96800
Zr1153     Zr  0.78310554  0.83456854  0.46017981     1.88900
O1154       O  0.74865434  0.77999297  0.36980076    -0.73500
O1155       O  0.78122082  0.76245449  0.56202008    -0.52700
O1156       O  0.74547042  0.79915291  0.51454573    -0.97400
O1157       O  0.77031623  0.87286703  0.43243537    -0.54600
O1158       O  0.73779889  0.80823694  0.41307175    -0.74000
C1159       C  0.73102727  0.78986913  0.38204346     0.98400
O1160       O  0.78930040  0.74607170  0.33872180    -0.62800
O1161       O  0.89607234  0.90411073  0.32893657    -0.57600
O1162       O  0.81317782  0.80537034  0.30747702    -0.94300
O1163       O  0.83904352  0.85662478  0.30106761    -0.92700
O1164       O  0.91772237  0.84063954  0.34997388    -0.93100
O1165       O  0.88596456  0.78325276  0.37408358    -0.91900
C1166       C  0.82677336  0.83089897  0.28447081     1.17200
H1167       H  0.90708375  0.88642715  0.40977055     0.33100
H1168       H  0.83476005  0.76385073  0.43132633     0.44000
H1169       H  0.78671112  0.83630849  0.36542783     0.37500
H1170       H  0.81535190  0.83648393  0.53809696     0.34000
H1171       H  0.89008911  0.77301767  0.46090713     0.25800
H1172       H  0.76211310  0.75359989  0.54514777     0.31700
H1173       H  0.72923914  0.78365095  0.49713006     0.37600
H1174       H  0.90367325  0.83968730  0.32615237     0.32100
H1175       H  0.89902435  0.88955531  0.31247864     0.31000
H1176       H  0.83452559  0.90936328  0.31612620     0.32700
H1177       H  0.76334509  0.86772903  0.40194344     0.31600
H1178       H  0.86668841  0.77513696  0.35762360     0.35600
H1179       H  0.77600595  0.74709119  0.31507240     0.28300
H1180       H  0.91108189  0.90702661  0.56375819     0.32600
H1181       H  0.75171801  0.85385940  0.51664789     0.35400
H1182       H  0.88994841  0.91491588  0.30638970     0.28000
H1183       H  0.80906756  0.75228690  0.32381027     0.40900
H1184       H  0.84218388  0.75402456  0.56177315     0.31000
H1185       H  0.92354001  0.79720322  0.44688366     0.38600
H1186       H  0.79017488  0.89160634  0.42866581     0.30400
H1187       H  0.78307849  0.74493516  0.57408093     0.30500
H1188       H  0.88101395  0.90941341  0.56475125     0.30800
C1189       C  0.83458162  0.80531628  0.71956539    -0.12500
C1190       C  0.83509885  0.83070310  0.73591441     0.04500
C1191       C  0.84308794  0.85617415  0.70615260    -0.07800
C1192       C  0.85020690  0.85569652  0.66184931    -0.08600
C1193       C  0.84897297  0.83010708  0.64528042    -0.03100
C1194       C  0.84130610  0.80472610  0.67499475     0.03700
N1195       N  0.84068535  0.77823930  0.66087771     0.66200
H1196       H  0.82931274  0.78578734  0.74163592     0.15100
H1197       H  0.85511968  0.87510629  0.63971396     0.14800
N1198       N  0.84234355  0.88220823  0.71932762     0.73900
O1199       O  0.86463230  0.77611088  0.66330483    -0.39500
O1200       O  0.81533666  0.75471914  0.65733863    -0.39500
O1201       O  0.86705956  0.90658825  0.72151080    -0.40200
O1202       O  0.81766311  0.88295406  0.71650057    -0.40200
C1203       C  0.84391832  0.85655264  0.16198978    -0.12500
C1204       C  0.84495645  0.83213665  0.14498511     0.04500
C1205       C  0.83876839  0.80689211  0.17416938    -0.07800
C1206       C  0.83174133  0.80658233  0.21878128    -0.08600
C1207       C  0.83074091  0.83099908  0.23583197    -0.03100
C1208       C  0.83676170  0.85620384  0.20658556     0.03700
N1209       N  0.83448948  0.88120875  0.22088074     0.66200
H1210       H  0.84753081  0.87570706  0.14016884     0.15100
H1211       H  0.82789825  0.78730361  0.24048428     0.14800
N1212       N  0.84038483  0.78161171  0.15960611     0.73900
O1213       O  0.85856934  0.90508074  0.22872076    -0.39500
O1214       O  0.81027366  0.88233520  0.21375474    -0.39500
O1215       O  0.86510758  0.78103298  0.16346913    -0.40200
O1216       O  0.81599434  0.75731664  0.15482010    -0.40200
C1217       C  0.92018939  0.02242439  0.40460031    -0.12500
C1218       C  0.92577074  0.03461591  0.44632977     0.04500
C1219       C  0.91572096  0.01424726  0.48405322    -0.07800
C1220       C  0.90180254  0.98303033  0.47932949    -0.08600
C1221       C  0.89722910  0.97093097  0.43755453    -0.03100
C1222       C  0.90626679  0.99131219  0.39983045     0.03700
N1223       N  0.90256113  0.98121062  0.35619585     0.66200
H1224       H  0.92709142  0.03719907  0.37482873     0.15100
H1225       H  0.89492396  0.96818038  0.50903563     0.14800
N1226       N  0.92021788  0.02459736  0.52757801     0.73900
O1227       O  0.87951052  0.97774648  0.33472686    -0.39500
O1228       O  0.92543127  0.98377379  0.33566315    -0.39500
O1229       O  0.89822134  0.02409728  0.54780504    -0.40200
O1230       O  0.94255727  0.02633725  0.54927335    -0.40200
C1231       C  0.98621901  0.15165701  0.71705460    -0.12500
C1232       C  0.00594328  0.17878370  0.73571791     0.04500
C1233       C  0.02154509  0.20515768  0.70718876    -0.07800
C1234       C  0.01651538  0.20387125  0.66172226    -0.08600
C1235       C  0.99621597  0.17682521  0.64307804    -0.03100
C1236       C  0.98115240  0.15035846  0.67161330     0.03700
N1237       N  0.96020759  0.12182046  0.65564924     0.66200
H1238       H  0.97378604  0.13119448  0.73799241     0.15100
H1239       H  0.02894257  0.22439601  0.64090647     0.14800
N1240       N  0.04295909  0.23351976  0.72333968     0.73900
O1241       O  0.96836463  0.10210915  0.65406234    -0.39500
O1242       O  0.93213455  0.11367593  0.65587236    -0.39500
O1243       O  0.07098257  0.24149281  0.72203580    -0.40200
O1244       O  0.03503887  0.25325820  0.72697833    -0.40200
C1245       C  0.03018135  0.20492044  0.21321108    -0.12500
C1246       C  0.01922784  0.17651594  0.23623110     0.04500
C1247       C  0.00578639  0.15071805  0.21143737    -0.07800
C1248       C  0.00177004  0.15366289  0.16603182    -0.08600
C1249       C  0.01086543  0.18188960  0.14358818    -0.03100
C1250       C  0.02611275  0.20785379  0.16778985     0.03700
N1251       N  0.03680564  0.23742899  0.14761684     0.66200
H1252       H  0.04109022  0.22536630  0.23072430     0.15100
H1253       H  0.99093299  0.13324708  0.14844433     0.14800
N1254       N  0.99551297  0.12116036  0.23133423     0.73900
O1255       O  0.02062603  0.24988769  0.15079052    -0.39500
O1256       O  0.06484408  0.25359029  0.13836423    -0.39500
O1257       O  0.96721013  0.10358458  0.23606462    -0.40200
O1258       O  0.01313984  0.11012930  0.23080102    -0.40200
C1259       C  0.90327240  0.98545527  0.97873860    -0.12500
C1260       C  0.89485954  0.97329360  0.93696180     0.04500
C1261       C  0.90037024  0.99376525  0.90001945    -0.07800
C1262       C  0.91444102  0.02492997  0.90540792    -0.08600
C1263       C  0.92375108  0.03713549  0.94702253    -0.03100
C1264       C  0.91743976  0.01662683  0.98407270     0.03700
N1265       N  0.92597471  0.02679263  0.02742834     0.66200
H1266       H  0.89935082  0.97070809  0.00805187     0.15100
H1267       H  0.91855313  0.03974455  0.87610139     0.14800
N1268       N  0.89257604  0.98370612  0.85644967     0.73900
O1269       O  0.90623549  0.02672134  0.05267737    -0.39500
O1270       O  0.94963527  0.02781821  0.04384856    -0.39500
O1271       O  0.86847841  0.98148349  0.83979587    -0.40200
O1272       O  0.91301317  0.98498218  0.83136080    -0.40200
C1273       C  0.99498836  0.89525445  0.42034140    -0.12500
C1274       C  0.98060669  0.90155857  0.45475814     0.04500
C1275       C  0.99897974  0.92634706  0.47978951    -0.07800
C1276       C  0.03045568  0.94359528  0.47034778    -0.08600
C1277       C  0.04456104  0.93719049  0.43582237    -0.03100
C1278       C  0.02623717  0.91257017  0.41075149     0.03700
N1279       N  0.03895312  0.90385538  0.37654832     0.66200
H1280       H  0.98193228  0.87660024  0.39990978     0.15100
H1281       H  0.04398119  0.96228553  0.49044593     0.14800
N1282       N  0.98649991  0.93417092  0.51535175     0.73900
O1283       O  0.04646198  0.88388645  0.38547914    -0.39500
O1284       O  0.03524623  0.90998229  0.33679582    -0.39500
O1285       O  0.99034504  0.92690483  0.55445432    -0.40200
O1286       O  0.97940846  0.95461500  0.50852742    -0.40200
C1287       C  0.11279060  0.09752509  0.39770891    -0.12500
C1288       C  0.10717106  0.07666417  0.43410445     0.04500
C1289       C  0.08056755  0.06722905  0.46013788    -0.07800
C1290       C  0.06161552  0.07987529  0.45077726    -0.08600
C1291       C  0.06820898  0.10139733  0.41541043    -0.03100
C1292       C  0.09381767  0.10984103  0.38836598     0.03700
N1293       N  0.10180716  0.13197065  0.35239899     0.66200
H1294       H  0.13241465  0.10491288  0.37605858     0.15100
H1295       H  0.04238471  0.07394224  0.47266371     0.14800
N1296       N  0.07281447  0.04576274  0.49690130     0.73900
O1297       O  0.12145806  0.15891737  0.35809368    -0.39500
O1298       O  0.09610295  0.12340244  0.31362262    -0.39500
O1299       O  0.07768099  0.05486419  0.53541631    -0.40200
O1300       O  0.05397040  0.01851266  0.49164443    -0.40200
C1301       C  0.20716835  0.01918409  0.64463960    -0.12500
C1302       C  0.18500927  0.02495614  0.62446701     0.04500
C1303       C  0.16381812  0.02729651  0.65152258    -0.07800
C1304       C  0.16507651  0.02357466  0.69755417    -0.08600
C1305       C  0.18715321  0.01752845  0.71751793    -0.03100
C1306       C  0.20840808  0.01544519  0.69038953     0.03700
N1307       N  0.23011479  0.00749768  0.70828798     0.66200
H1308       H  0.22330113  0.01655648  0.62467304     0.15100
H1309       H  0.14877714  0.02572003  0.71784750     0.14800
N1310       N  0.14169420  0.03453502  0.63324003     0.73900
O1311       O  0.22387974  0.98031589  0.70931962    -0.39500
O1312       O  0.25754447  0.02775819  0.71113533    -0.39500
O1313       O  0.11429145  0.01400317  0.63153050    -0.40200
O1314       O  0.14770320  0.06167780  0.63032803    -0.40200
C1315       C  0.16314412  0.01589084  0.19927343    -0.12500
C1316       C  0.18981709  0.01772242  0.21807189     0.04500
C1317       C  0.21472431  0.02504096  0.18965434    -0.07800
C1318       C  0.21212100  0.02912463  0.14409700    -0.08600
C1319       C  0.18514048  0.02638948  0.12500498    -0.03100
C1320       C  0.16063214  0.02023983  0.15359561     0.03700
N1321       N  0.13322625  0.01889655  0.13741095     0.66200
H1322       H  0.14386579  0.01120708  0.22021620     0.15100
H1323       H  0.23155386  0.03384027  0.12350752     0.14800
N1324       N  0.24267034  0.02766395  0.20587918     0.73900
O1325       O  0.10937649  0.99361030  0.13680144    -0.39500
O1326       O  0.13080689  0.04241335  0.13620542    -0.39500
O1327       O  0.24765629  0.00586356  0.20307645    -0.40200
O1328       O  0.26488731  0.05357205  0.21072376    -0.40200
C1329       C  0.02846840  0.94619164  0.97490633    -0.12500
C1330       C  0.04185713  0.94363376  0.93581804     0.04500
C1331       C  0.02248660  0.92319736  0.90550848    -0.07800
C1332       C  0.99134401  0.90526565  0.91541914    -0.08600
C1333       C  0.97803335  0.90702336  0.95501028    -0.03100
C1334       C  0.99699307  0.92850650  0.98441927     0.03700
N1335       N  0.98505176  0.93241772  0.02433705     0.66200
H1336       H  0.04249919  0.96214005  0.99854767     0.15100
H1337       H  0.97736601  0.88981100  0.89116300     0.14800
N1338       N  0.03382663  0.91973982  0.86468879     0.73900
O1339       O  0.98788967  0.92008743  0.06009647    -0.39500
O1340       O  0.97916687  0.95374133  0.02551955    -0.39500
O1341       O  0.03825691  0.89762857  0.86149398    -0.40200
O1342       O  0.03128256  0.93324342  0.82997361    -0.40200
C1343       C  0.07698664  0.06731199  0.94206616    -0.12500
C1344       C  0.10821788  0.08454047  0.92995622     0.04500
C1345       C  0.11790347  0.11244786  0.90504390    -0.07800
C1346       C  0.09717363  0.12227624  0.89361145    -0.08600
C1347       C  0.06670603  0.10591649  0.90726627    -0.03100
C1348       C  0.05632514  0.07791991  0.93103248     0.03700
N1349       N  0.02521883  0.06086668  0.94575866     0.66200
H1350       H  0.06856441  0.04561415  0.96001044     0.15100
H1351       H  0.10562764  0.14438049  0.87677746     0.14800
N1352       N  0.14908836  0.13221452  0.89248864     0.73900
O1353       O  0.00484156  0.04659578  0.91838763    -0.39500
O1354       O  0.01757574  0.06532306  0.98275688    -0.39500
O1355       O  0.15711240  0.13451123  0.85261747    -0.40200
O1356       O  0.16567862  0.15279927  0.91732460    -0.40200
C1357       C  0.64632536  0.76483082  0.85146406    -0.12500
C1358       C  0.64498541  0.75407368  0.80960790     0.04500
C1359       C  0.67171098  0.75692401  0.79079768    -0.07800
C1360       C  0.69889591  0.76955235  0.81437292    -0.08600
C1361       C  0.70032720  0.77954315  0.85707818    -0.03100
C1362       C  0.67364060  0.77779668  0.87506928     0.03700
N1363       N  0.67322700  0.78751167  0.91801375     0.66200
H1364       H  0.62572372  0.76227532  0.86657341     0.15100
H1365       H  0.71894944  0.77088573  0.79928467     0.14800
N1366       N  0.67124634  0.74533725  0.74900663     0.73900
O1367       O  0.67655406  0.81346079  0.92150284    -0.39500
O1368       O  0.66158773  0.76807407  0.94992852    -0.39500
O1369       O  0.68183660  0.76334263  0.71532966    -0.40200
O1370       O  0.66731478  0.71900025  0.74772588    -0.40200
C1371       C  0.51903259  0.65292096  0.46335340    -0.12500
C1372       C  0.51064559  0.67266297  0.44124421     0.04500
C1373       C  0.49699077  0.68568656  0.46623055    -0.07800
C1374       C  0.49221572  0.67877642  0.51180382    -0.08600
C1375       C  0.50128984  0.65957170  0.53398615    -0.03100
C1376       C  0.51472110  0.64640686  0.50893933     0.03700
N1377       N  0.52420641  0.62625800  0.52874938     0.66200
H1378       H  0.52896186  0.64211281  0.44516668     0.15100
H1379       H  0.48260638  0.68977794  0.53020414     0.14800
N1380       N  0.48913020  0.70714659  0.44669191     0.73900
O1381       O  0.50498219  0.59859156  0.53373262    -0.39500
O1382       O  0.55222796  0.63416783  0.52800470    -0.39500
O1383       O  0.46136793  0.69946643  0.44172615    -0.40200
O1384       O  0.50853301  0.73478867  0.44616241    -0.40200
C1385       C  0.51127806  0.64462547  0.96330304    -0.12500
C1386       C  0.51064292  0.66966047  0.94232755     0.04500
C1387       C  0.50387767  0.68788299  0.96816395    -0.07800
C1388       C  0.49822434  0.68096854  0.01358806    -0.08600
C1389       C  0.49954974  0.65640011  0.03466658    -0.03100
C1390       C  0.50579456  0.63784141  0.00889855     0.03700
N1391       N  0.50538272  0.61130332  0.02791215     0.66200
H1392       H  0.51548045  0.62978571  0.94407486     0.15100
H1393       H  0.49429487  0.69595285  0.03289291     0.14800
N1394       N  0.50452120  0.71462848  0.94957549     0.73900
O1395       O  0.48073757  0.58663598  0.02831481    -0.39500
O1396       O  0.53018667  0.61087294  0.03153610    -0.39500
O1397       O  0.47976509  0.71501060  0.94449538    -0.40200
O1398       O  0.52918943  0.73925565  0.94944370    -0.40200
C1399       C  0.64996070  0.77092073  0.34458030    -0.12500
C1400       C  0.64728322  0.75569413  0.30635739     0.04500
C1401       C  0.67240513  0.75304377  0.29265025    -0.07800
C1402       C  0.69918271  0.76502751  0.31721857    -0.08600
C1403       C  0.70193011  0.77954458  0.35653053    -0.03100
C1404       C  0.67688084  0.78299789  0.36945967     0.03700
N1405       N  0.67758834  0.79742744  0.40856896     0.66200
H1406       H  0.63050352  0.77239686  0.35626569     0.15100
H1407       H  0.71778628  0.76214209  0.30556030     0.14800
N1408       N  0.67053700  0.73653755  0.25534767     0.73900
O1409       O  0.68317037  0.82443412  0.40518982    -0.39500
O1410       O  0.66465282  0.78141041  0.44326774    -0.39500
O1411       O  0.68163709  0.75068921  0.21872648    -0.40200
O1412       O  0.66545639  0.70977701  0.26156308    -0.40200
C1413       C  0.35266962  0.56906169  0.75053297    -0.12500
C1414       C  0.36738189  0.59206627  0.71661832     0.04500
C1415       C  0.34926308  0.60115625  0.69106354    -0.07800
C1416       C  0.31775139  0.58731833  0.69965051    -0.08600
C1417       C  0.30345473  0.56520281  0.73459739    -0.03100
C1418       C  0.32145532  0.55612907  0.76010907     0.03700
N1419       N  0.30858620  0.53362597  0.79568787     0.66200
H1420       H  0.36556320  0.56141806  0.77126364     0.15100
H1421       H  0.30446328  0.59455127  0.67912681     0.14800
N1422       N  0.36226283  0.62485989  0.65712215     0.73900
O1423       O  0.30269130  0.50707309  0.78973096    -0.39500
O1424       O  0.31051856  0.54170390  0.83457175    -0.39500
O1425       O  0.36074413  0.61827058  0.61747124    -0.40200
O1426       O  0.36745747  0.65087947  0.66532256    -0.40200
C1427       C  0.11207714  0.36007447  0.85904128    -0.12500
C1428       C  0.09622533  0.37626741  0.85799773     0.04500
C1429       C  0.06961503  0.36494394  0.88532303    -0.07800
C1430       C  0.05889968  0.33747258  0.91063323    -0.08600
C1431       C  0.07374695  0.32045598  0.90921460    -0.03100
C1432       C  0.10119651  0.33258549  0.88393162     0.03700
N1433       N  0.11750097  0.31637793  0.88087668     0.66200
H1434       H  0.13286905  0.36842793  0.83958241     0.15100
H1435       H  0.03726448  0.32811919  0.92827389     0.14800
N1436       N  0.05118105  0.37911603  0.88448303     0.73900
O1437       O  0.11643299  0.30425205  0.84547065    -0.39500
O1438       O  0.13936210  0.32207397  0.90653894    -0.39500
O1439       O  0.02613039  0.36677785  0.86485336    -0.40200
O1440       O  0.05485165  0.39711429  0.91360700    -0.40200
C1441       C  0.18467697  0.53404305  0.47192954    -0.12500
C1442       C  0.15903203  0.50991602  0.45415972     0.04500
C1443       C  0.13364448  0.49162721  0.48232338    -0.07800
C1444       C  0.13475673  0.49724813  0.52693554    -0.08600
C1445       C  0.16076879  0.52073697  0.54505539    -0.03100
C1446       C  0.18580410  0.53959260  0.51667856     0.03700
N1447       N  0.21243698  0.56475237  0.53217477     0.66200
H1448       H  0.20420666  0.54893193  0.45096169     0.15100
H1449       H  0.11529076  0.48214086  0.54786881     0.14800
N1450       N  0.10692121  0.46642838  0.46702886     0.73900
O1451       O  0.23662928  0.56317462  0.53608887    -0.39500
O1452       O  0.21421035  0.59034373  0.52881143    -0.39500
O1453       O  0.10457128  0.44061439  0.47159390    -0.40200
O1454       O  0.08320896  0.46860440  0.46066572    -0.40200
C1455       C  0.18630635  0.50352426  0.02584520    -0.12500
C1456       C  0.16355847  0.50739702  0.04538186     0.04500
C1457       C  0.13949374  0.50614055  0.01955906    -0.07800
C1458       C  0.13859672  0.50112484  0.97479883    -0.08600
C1459       C  0.16120132  0.49700659  0.95506631    -0.03100
C1460       C  0.18517824  0.49798325  0.98119248     0.03700
N1461       N  0.20743679  0.49151085  0.96380461     0.66200
H1462       H  0.20428181  0.50336987  0.04581870     0.15100
H1463       H  0.12040140  0.50112147  0.95521132     0.14800
N1464       N  0.11623100  0.51075425  0.03793858     0.73900
O1465       O  0.23388627  0.51287651  0.95444152    -0.39500
O1466       O  0.20320445  0.46498282  0.96874365    -0.39500
O1467       O  0.11919000  0.53683411  0.03486286    -0.40200
O1468       O  0.09012612  0.48839232  0.04573927    -0.40200
C1469       C  0.35325315  0.60368687  0.19693499    -0.12500
C1470       C  0.36826468  0.59091149  0.22184763     0.04500
C1471       C  0.35073259  0.56700150  0.25392995    -0.07800
C1472       C  0.31985022  0.55768258  0.26135797    -0.08600
C1473       C  0.30510185  0.57066418  0.23672496    -0.03100
C1474       C  0.32210751  0.59370877  0.20369135     0.03700
N1475       N  0.30846175  0.60807110  0.17753585     0.66200
H1476       H  0.36584055  0.62209015  0.17256771     0.15100
H1477       H  0.30702594  0.53930087  0.28568145     0.14800
N1478       N  0.36354424  0.55149225  0.27934396     0.73900
O1479       O  0.31104513  0.63249254  0.18922544    -0.39500
O1480       O  0.30177013  0.60124061  0.13813593    -0.39500
O1481       O  0.36881156  0.55634650  0.31962469    -0.40200
O1482       O  0.36190010  0.52802049  0.26519454    -0.40200
C1483       C  0.11915906  0.35936628  0.37238732    -0.12500
C1484       C  0.10221925  0.37418254  0.36398714     0.04500
C1485       C  0.07248960  0.36130091  0.38317290    -0.07800
C1486       C  0.06004329  0.33352136  0.40781609    -0.08600
C1487       C  0.07635117  0.31790523  0.41359030    -0.03100
C1488       C  0.10657784  0.33157862  0.39674344     0.03700
N1489       N  0.12447365  0.31690103  0.40250117     0.66200
H1490       H  0.14220619  0.36909807  0.35925683     0.15100
H1491       H  0.03649318  0.32287482  0.41905493     0.14800
N1492       N  0.05349510  0.37462186  0.37493982     0.73900
O1493       O  0.12789610  0.30411153  0.37055440    -0.39500
O1494       O  0.14315022  0.32399157  0.43363570    -0.39500
O1495       O  0.03539101  0.36636753  0.34307944    -0.40200
O1496       O  0.04925416  0.38817279  0.40509637    -0.40200
C1497       C  0.24179510  0.93931676  0.79434216    -0.12500
C1498       C  0.23406210  0.93247508  0.83981885     0.04500
C1499       C  0.23609051  0.90787985  0.86061839    -0.07800
C1500       C  0.24644797  0.89171359  0.83655046    -0.08600
C1501       C  0.25444945  0.89897683  0.79148156    -0.03100
C1502       C  0.25173115  0.92283440  0.77033520     0.03700
N1503       N  0.26116404  0.93191012  0.72518498     0.66200
H1504       H  0.24064066  0.95801047  0.77735777     0.15100
H1505       H  0.24949361  0.87410594  0.85371012     0.14800
N1506       N  0.23010036  0.90040259  0.90683930     0.73900
O1507       O  0.24327726  0.91762281  0.69513150    -0.39500
O1508       O  0.28901355  0.94925629  0.71584059    -0.39500
O1509       O  0.20580244  0.87713035  0.91971224    -0.40200
O1510       O  0.25182074  0.91214790  0.93329313    -0.40200
C1511       C  0.28439736  0.69003677  0.69974860    -0.12500
C1512       C  0.26908606  0.70611642  0.70830741     0.04500
C1513       C  0.23719672  0.69178927  0.70504254    -0.07800
C1514       C  0.22111730  0.66161857  0.69537455    -0.08600
C1515       C  0.23604181  0.64471872  0.69091988    -0.03100
C1516       C  0.26805986  0.65935879  0.69156738     0.03700
N1517       N  0.28394371  0.64278709  0.68799040     0.66200
H1518       H  0.30905901  0.70115934  0.70074213     0.15100
H1519       H  0.19641514  0.65059456  0.69507534     0.14800
N1520       N  0.22063846  0.70728522  0.71237733     0.73900
O1521       O  0.28824957  0.63606193  0.65046701    -0.39500
O1522       O  0.28817860  0.63003412  0.72221679    -0.39500
O1523       O  0.20989247  0.71534087  0.67975995    -0.40200
O1524       O  0.20990123  0.70535324  0.75048446    -0.40200
C1525       C  0.43340650  0.78450165  0.72740367    -0.12500
C1526       C  0.41169462  0.77772605  0.69367312     0.04500
C1527       C  0.40466936  0.75257143  0.66917082    -0.07800
C1528       C  0.41867232  0.73486857  0.67938071    -0.08600
C1529       C  0.43982060  0.74152318  0.71378709    -0.03100
C1530       C  0.44733157  0.76700629  0.73745460     0.03700
N1531       N  0.47004186  0.77643209  0.77065920     0.66200
H1532       H  0.43977135  0.80361572  0.74708552     0.15100
H1533       H  0.41278356  0.71562410  0.66019499     0.14800
N1534       N  0.38419996  0.74503764  0.63312502     0.73900
O1535       O  0.49715714  0.79575513  0.76007677    -0.39500
O1536       O  0.46183569  0.77184083  0.81076204    -0.39500
O1537       O  0.39499783  0.75344076  0.59434837    -0.40200
O1538       O  0.35707390  0.72407296  0.63887533    -0.40200
C1539       C  0.36378378  0.86716005  0.43645831    -0.12500
C1540       C  0.34570472  0.83860061  0.42017934     0.04500
C1541       C  0.33379197  0.81303804  0.45037532    -0.07800
C1542       C  0.33923523  0.81668741  0.49541926    -0.08600
C1543       C  0.35567914  0.84539086  0.51188793    -0.03100
C1544       C  0.36860463  0.87081849  0.48159053     0.03700
N1545       N  0.38640712  0.90064980  0.49563490     0.66200
H1546       H  0.37391373  0.88715976  0.41414294     0.15100
H1547       H  0.32891624  0.79677342  0.51780567     0.14800
N1548       N  0.31450913  0.78331616  0.43668504     0.73900
O1549       O  0.41496037  0.91176424  0.49752332    -0.39500
O1550       O  0.37533384  0.91816298  0.49238047    -0.39500
O1551       O  0.32524729  0.76568324  0.43417042    -0.40200
O1552       O  0.28597188  0.77258342  0.43849843    -0.40200
C1553       C  0.33133799  0.86329776  0.98871274    -0.12500
C1554       C  0.33373368  0.83929736  0.01046703     0.04500
C1555       C  0.33315943  0.81684747  0.98483023    -0.07800
C1556       C  0.33041121  0.81893228  0.93908167    -0.08600
C1557       C  0.32810529  0.84292391  0.91761915    -0.03100
C1558       C  0.32850484  0.86528211  0.94299865     0.03700
N1559       N  0.32473564  0.88946153  0.92342211     0.66200
H1560       H  0.33111196  0.88065003  0.00723921     0.15100
H1561       H  0.33054544  0.80168015  0.92014490     0.14800
N1562       N  0.33555754  0.79183719  0.00407072     0.73900
O1563       O  0.29816502  0.88573233  0.91865278    -0.39500
O1564       O  0.34708771  0.91586605  0.92166617    -0.39500
O1565       O  0.31221195  0.76607487  0.00559479    -0.40200
O1566       O  0.36153627  0.79381857  0.00664493    -0.40200
C1567       C  0.28221496  0.92708461  0.31329010    -0.12500
C1568       C  0.26129071  0.89794942  0.30095046     0.04500
C1569       C  0.23007262  0.88677252  0.31116681    -0.07800
C1570       C  0.22087130  0.90436842  0.33412876    -0.08600
C1571       C  0.24214804  0.93329636  0.34675387    -0.03100
C1572       C  0.27309908  0.94451835  0.33578382     0.03700
N1573       N  0.29612099  0.97250056  0.35072312     0.66200
H1574       H  0.30635138  0.93650680  0.30614773     0.15100
H1575       H  0.19687024  0.89549734  0.34162145     0.14800
N1576       N  0.20747349  0.85753810  0.29962794     0.73900
O1577       O  0.30952471  0.97206196  0.38594589    -0.39500
O1578       O  0.30882510  0.99507462  0.32351357    -0.39500
O1579       O  0.19763219  0.83598360  0.32871627    -0.40200
O1580       O  0.19195322  0.85517723  0.26559198    -0.40200
C1581       C  0.24279177  0.68897971  0.17863988    -0.12500
C1582       C  0.26632744  0.69940060  0.20960502     0.04500
C1583       C  0.27484551  0.67892352  0.22945072    -0.07800
C1584       C  0.25908385  0.64858748  0.21940913    -0.08600
C1585       C  0.23485518  0.63808403  0.18976716    -0.03100
C1586       C  0.22692131  0.65865243  0.16897155     0.03700
N1587       N  0.20271731  0.64908448  0.13812536     0.66200
H1588       H  0.23638827  0.70448212  0.16210950     0.15100
H1589       H  0.26476594  0.63278468  0.23673692     0.14800
N1590       N  0.29970667  0.68853175  0.25913714     0.73900
O1591       O  0.17688875  0.64452403  0.15055611    -0.39500
O1592       O  0.20904242  0.65246257  0.09738330    -0.39500
O1593       O  0.29422099  0.68284552  0.30007612    -0.40200
O1594       O  0.32584055  0.69556882  0.24439928    -0.40200
C1595       C  0.43418399  0.78460444  0.21498311    -0.12500
C1596       C  0.41061869  0.77494361  0.18384660     0.04500
C1597       C  0.40109769  0.74700541  0.16565849    -0.07800
C1598       C  0.41547633  0.73001554  0.17807127    -0.08600
C1599       C  0.43886168  0.73975468  0.20945588    -0.03100
C1600       C  0.44790437  0.76734858  0.22824168     0.03700
N1601       N  0.47141084  0.77870460  0.26019697     0.66200
H1602       H  0.44183403  0.80564757  0.23036022     0.15100
H1603       H  0.40798382  0.70878286  0.16327060     0.14800
N1604       N  0.37738140  0.73568560  0.13406657     0.73900
O1605       O  0.49832279  0.79730596  0.24758344    -0.39500
O1606       O  0.46411445  0.77657871  0.30037888    -0.39500
O1607       O  0.38441563  0.73882320  0.09361699    -0.40200
O1608       O  0.35071159  0.71639430  0.14676400    -0.40200
C1609       C  0.57329210  0.59251107  0.71817156    -0.12500
C1610       C  0.59316772  0.62316645  0.70909640     0.04500
C1611       C  0.61449884  0.63205623  0.67367869    -0.07800
C1612       C  0.61496154  0.61033927  0.64778258    -0.08600
C1613       C  0.59422053  0.57954036  0.65584405    -0.03100
C1614       C  0.57312367  0.57086667  0.69193403     0.03700
N1615       N  0.55053791  0.54023037  0.70223086     0.66200
H1616       H  0.55609890  0.58523969  0.74413035     0.15100
H1617       H  0.63199778  0.61770247  0.62161552     0.14800
N1618       N  0.63616087  0.66303542  0.66378150     0.73900
O1619       O  0.55355149  0.52667288  0.73651626    -0.39500
O1620       O  0.52435136  0.53063813  0.68618725    -0.39500
O1621       O  0.66298710  0.67306293  0.67755038    -0.40200
O1622       O  0.63123380  0.67733743  0.63225427    -0.40200
C1623       C  0.74983110  0.64439451  0.51315141    -0.12500
C1624       C  0.71842532  0.63324692  0.51901651     0.04500
C1625       C  0.70523802  0.64974821  0.49827810    -0.07800
C1626       C  0.72373956  0.67739264  0.47441279    -0.08600
C1627       C  0.75535802  0.68912189  0.47038730    -0.03100
C1628       C  0.76818754  0.67180932  0.48913901     0.03700
N1629       N  0.80005722  0.68195854  0.48460877     0.66200
H1630       H  0.76034996  0.63176673  0.52747301     0.15100
H1631       H  0.71360164  0.69075326  0.46167614     0.14800
N1632       N  0.67355707  0.64008570  0.50394009     0.73900
O1633       O  0.81729151  0.69388364  0.51648010    -0.39500
O1634       O  0.80903621  0.67171412  0.45491884    -0.39500
O1635       O  0.66536094  0.65195710  0.53218716    -0.40200
O1636       O  0.65531686  0.62590373  0.47415990    -0.40200
C1637       C  0.61164768  0.48853038  0.84366659    -0.12500
C1638       C  0.63494523  0.48609360  0.82200591     0.04500
C1639       C  0.66093312  0.49094292  0.84621510    -0.07800
C1640       C  0.66353824  0.49890406  0.89000714    -0.08600
C1641       C  0.64057968  0.50190805  0.91138049    -0.03100
C1642       C  0.61413657  0.49616243  0.88778550     0.03700
N1643       N  0.58904728  0.49664299  0.90838781     0.66200
H1644       H  0.59129974  0.48474511  0.82603693     0.15100
H1645       H  0.68393352  0.50274020  0.90756638     0.14800
N1646       N  0.68546627  0.48888104  0.82680017     0.73900
O1647       O  0.58618005  0.51984018  0.90265349    -0.39500
O1648       O  0.56641864  0.47209602  0.92219742    -0.39500
O1649       O  0.70913261  0.51276334  0.81375168    -0.40200
O1650       O  0.68696629  0.46502677  0.83422917    -0.40200
C1651       C  0.64503255  0.47708911  0.39591941    -0.12500
C1652       C  0.64172539  0.50066400  0.41239022     0.04500
C1653       C  0.63250369  0.51696899  0.38268454    -0.07800
C1654       C  0.62757062  0.51000914  0.33826395    -0.08600
C1655       C  0.63147712  0.48684799  0.32138785    -0.03100
C1656       C  0.64005299  0.47009038  0.35135685     0.03700
N1657       N  0.64337361  0.44554393  0.33782151     0.66200
H1658       H  0.65141276  0.46359634  0.41789935     0.15100
H1659       H  0.62128934  0.52370195  0.31657469     0.14800
N1660       N  0.62900870  0.54143985  0.39626445     0.73900
O1661       O  0.66986315  0.44944871  0.33178028    -0.39500
O1662       O  0.62161075  0.41908831  0.34509056    -0.39500
O1663       O  0.65048949  0.56801863  0.38878753    -0.40200
O1664       O  0.60258222  0.53715262  0.40428801    -0.40200
C1665       C  0.57215396  0.59394959  0.21776540    -0.12500
C1666       C  0.59380576  0.62437055  0.21207077     0.04500
C1667       C  0.61639102  0.63365743  0.17848091    -0.07800
C1668       C  0.61632907  0.61261113  0.15063762    -0.08600
C1669       C  0.59362651  0.58222117  0.15488861    -0.03100
C1670       C  0.57123402  0.57311444  0.18921832     0.03700
N1671       N  0.54657269  0.54293047  0.19509796     0.66200
H1672       H  0.55408372  0.58655305  0.24237233     0.15100
H1673       H  0.63439331  0.62008157  0.12603790     0.14800
N1674       N  0.63976477  0.66437182  0.17248966     0.73900
O1675       O  0.54524959  0.52720862  0.22965475    -0.39500
O1676       O  0.52278234  0.53535017  0.17290202    -0.39500
O1677       O  0.66562131  0.67210250  0.18867207    -0.40200
O1678       O  0.63716853  0.68126074  0.14258462    -0.40200
C1679       C  0.74878693  0.64591963  0.01805097    -0.12500
C1680       C  0.71710345  0.63390201  0.02174908     0.04500
C1681       C  0.70407444  0.65025619  0.99977933    -0.07800
C1682       C  0.72271255  0.67794411  0.97584038    -0.08600
C1683       C  0.75450195  0.69036974  0.97349863    -0.03100
C1684       C  0.76735868  0.67367495  0.99462638     0.03700
N1685       N  0.79954993  0.68496867  0.99358507     0.66200
H1686       H  0.75938555  0.63374605  0.03369833     0.15100
H1687       H  0.71243949  0.69089717  0.96190341     0.14800
N1688       N  0.67233509  0.64059040  0.00466105     0.73900
O1689       O  0.81489279  0.69719052  0.02687207    -0.39500
O1690       O  0.81072396  0.67554799  0.96572909    -0.39500
O1691       O  0.66356864  0.65024104  0.03543957    -0.40200
O1692       O  0.65490256  0.62922144  0.97276624    -0.40200
C1693       C  0.60131193  0.31672277  0.64168995    -0.12500
C1694       C  0.58092897  0.30360437  0.60677304     0.04500
C1695       C  0.56920560  0.32054748  0.58429345    -0.07800
C1696       C  0.57610006  0.34866647  0.59851783    -0.08600
C1697       C  0.59524637  0.36131461  0.63464864    -0.03100
C1698       C  0.60874386  0.34536559  0.65536405     0.03700
N1699       N  0.62932746  0.35749716  0.69087268     0.66200
H1700       H  0.61080964  0.30421963  0.65947961     0.15100
H1701       H  0.56623617  0.36072486  0.58049372     0.14800
N1702       N  0.54890439  0.30902298  0.54835999     0.73900
O1703       O  0.61926108  0.35812049  0.72838925    -0.39500
O1704       O  0.65768361  0.37158935  0.68309631    -0.39500
O1705       O  0.52072794  0.29888619  0.55476587    -0.40200
O1706       O  0.55959047  0.31575971  0.50941480    -0.40200
C1707       C  0.42865900  0.02295382  0.66098485    -0.12500
C1708       C  0.41569836  0.03167444  0.62589863     0.04500
C1709       C  0.38515661  0.01252577  0.61520829    -0.07800
C1710       C  0.36832973  0.98504577  0.63976053    -0.08600
C1711       C  0.38128549  0.97649077  0.67544781    -0.03100
C1712       C  0.41179966  0.99594876  0.68615604     0.03700
N1713       N  0.42639612  0.98850498  0.72164039     0.66200
H1714       H  0.45205999  0.03764444  0.66962572     0.15100
H1715       H  0.34499534  0.97017695  0.63065211     0.14800
N1716       N  0.37086259  0.02048345  0.57987141     0.73900
O1717       O  0.44203379  0.97610432  0.71353739    -0.39500
O1718       O  0.43050123  0.00137788  0.75722643    -0.39500
O1719       O  0.36769572  0.00864739  0.54353430    -0.40200
O1720       O  0.35446707  0.03198841  0.58848699    -0.40200
C1721       C  0.37224517  0.07855578  0.47901915    -0.12500
C1722       C  0.38465648  0.10902952  0.48811143     0.04500
C1723       C  0.37026829  0.12499999  0.47013098    -0.07800
C1724       C  0.34345693  0.11005743  0.44568303    -0.08600
C1725       C  0.33005874  0.07909461  0.43909071    -0.03100
C1726       C  0.34505839  0.06350109  0.45578352     0.03700
N1727       N  0.33167292  0.03174051  0.45302908     0.66200
H1728       H  0.38278303  0.06569121  0.49231107     0.15100
H1729       H  0.33171232  0.12224428  0.43461573     0.14800
N1730       N  0.38209270  0.15616794  0.47694936     0.73900
O1731       O  0.34456907  0.02188582  0.42892461    -0.39500
O1732       O  0.31332033  0.01438384  0.48310777    -0.39500
O1733       O  0.39620954  0.17550284  0.44573141    -0.40200
O1734       O  0.37206761  0.16352903  0.50905798    -0.40200
C1735       C  0.51650772  0.18497498  0.87203664    -0.12500
C1736       C  0.50773294  0.15751596  0.89615645     0.04500
C1737       C  0.50127643  0.13185532  0.87323338    -0.07800
C1738       C  0.50283191  0.13406574  0.82718179    -0.08600
C1739       C  0.51125560  0.16153124  0.80329684    -0.03100
C1740       C  0.51850591  0.18727376  0.82628050     0.03700
N1741       N  0.52657909  0.21574156  0.80409357     0.66200
H1742       H  0.52134496  0.20500769  0.88860578     0.15100
H1743       H  0.49783909  0.11420095  0.81001960     0.14800
N1744       N  0.49411466  0.10369529  0.89581781     0.73900
O1745       O  0.50603822  0.22290569  0.79776534    -0.39500
O1746       O  0.55404081  0.23633440  0.80443839    -0.39500
O1747       O  0.46702755  0.08229734  0.89601441    -0.40200
O1748       O  0.51541364  0.09802853  0.90497879    -0.40200
C1749       C  0.52644389  0.18910499  0.32081850    -0.12500
C1750       C  0.52103293  0.16220622  0.30324707     0.04500
C1751       C  0.51515394  0.13708588  0.33206363    -0.07800
C1752       C  0.51356954  0.13898348  0.37744125    -0.08600
C1753       C  0.51764014  0.16550403  0.39488526    -0.03100
C1754       C  0.52466363  0.19097074  0.36607838     0.03700
N1755       N  0.52813457  0.21830890  0.38168153     0.66200
H1756       H  0.53062503  0.20853014  0.29922337     0.15100
H1757       H  0.50896553  0.11945134  0.39910567     0.14800
N1758       N  0.51111211  0.10964000  0.31606080     0.73900
O1759       O  0.55453241  0.24058323  0.38425032    -0.39500
O1760       O  0.50533544  0.22237303  0.38244823    -0.39500
O1761       O  0.53352376  0.10495567  0.31561560    -0.40200
O1762       O  0.48450279  0.08770778  0.31345351    -0.40200
C1763       C  0.55398909  0.33991620  0.11042985    -0.12500
C1764       C  0.58187639  0.35746802  0.13168129     0.04500
C1765       C  0.60176642  0.34542204  0.13798312    -0.07800
C1766       C  0.59353500  0.31685419  0.12338486    -0.08600
C1767       C  0.56591329  0.29977781  0.10170351    -0.03100
C1768       C  0.54610546  0.31169586  0.09521942     0.03700
N1769       N  0.51708350  0.29478262  0.07551707     0.66200
H1770       H  0.53805636  0.34828383  0.10487347     0.15100
H1771       H  0.60877235  0.30770803  0.12950396     0.14800
N1772       N  0.63081507  0.36209181  0.15764345     0.73900
O1773       O  0.49387817  0.27918767  0.10003892    -0.39500
O1774       O  0.51360833  0.30118787  0.03579262    -0.39500
O1775       O  0.63399277  0.35621922  0.19773310    -0.40200
O1776       O  0.65415839  0.37662412  0.13301896    -0.40200
C1777       C  0.37286655  0.97788585  0.14532978    -0.12500
C1778       C  0.38495209  0.96691669  0.17929552     0.04500
C1779       C  0.41669487  0.98221192  0.18569391    -0.07800
C1780       C  0.43525985  0.00819563  0.15940999    -0.08600
C1781       C  0.42292953  0.02055150  0.12805046    -0.03100
C1782       C  0.39149208  0.00463094  0.12000943     0.03700
N1783       N  0.37781627  0.01620362  0.08857310     0.66200
H1784       H  0.34862696  0.96599494  0.13907433     0.15100
H1785       H  0.45944725  0.02031146  0.16617628     0.14800
N1786       N  0.43058486  0.97227729  0.21925312     0.73900
O1787       O  0.37327174  0.00709073  0.05007296    -0.39500
O1788       O  0.36388491  0.02920992  0.10189669    -0.39500
O1789       O  0.44662479  0.96088979  0.20819834    -0.40200
O1790       O  0.43377578  0.98225600  0.25707618    -0.40200
C1791       C  0.34004969  0.10637383  0.94787891    -0.12500
C1792       C  0.32702762  0.07592896  0.93819465     0.04500
C1793       C  0.34207071  0.05990668  0.95277895    -0.07800
C1794       C  0.36864435  0.07397585  0.97777400    -0.08600
C1795       C  0.38039580  0.10376148  0.99035799    -0.03100
C1796       C  0.36612957  0.12023145  0.97396143     0.03700
N1797       N  0.37717088  0.15074346  0.98424773     0.66200
H1798       H  0.32832397  0.11882860  0.93818067     0.15100
H1799       H  0.37912262  0.06074822  0.98965204     0.14800
N1800       N  0.32903201  0.02848626  0.94659947     0.73900
O1801       O  0.39492731  0.17172539  0.95722410    -0.39500
O1802       O  0.36344063  0.15637406  0.01349320    -0.39500
O1803       O  0.34153248  0.01990944  0.91953468    -0.40200
O1804       O  0.31059410  0.00963990  0.97536318    -0.40200
C1805       C  0.93246486  0.28981340  0.53286350    -0.12500
C1806       C  0.90196222  0.27387940  0.54756844     0.04500
C1807       C  0.88487351  0.24291429  0.54002630    -0.07800
C1808       C  0.89861396  0.22861836  0.51842793    -0.08600
C1809       C  0.92948607  0.24470991  0.50448742    -0.03100
C1810       C  0.94621621  0.27574183  0.51188432     0.03700
N1811       N  0.97725482  0.29372832  0.49737838     0.66200
H1812       H  0.94605695  0.31363567  0.53791194     0.15100
H1813       H  0.88532544  0.20478565  0.51340807     0.14800
N1814       N  0.85344314  0.22597758  0.55307793     0.73900
O1815       O  0.98300533  0.30860534  0.46064289    -0.39500
O1816       O  0.99809772  0.30110180  0.52538205    -0.39500
O1817       O  0.83387386  0.22971139  0.53124683    -0.40200
O1818       O  0.84613611  0.21184358  0.59044661    -0.40200
C1819       C  0.78448291  0.44828576  0.61573004    -0.12500
C1820       C  0.77923351  0.42710233  0.65158098     0.04500
C1821       C  0.75335756  0.41815298  0.67891730    -0.07800
C1822       C  0.73396127  0.43037849  0.67018838    -0.08600
C1823       C  0.73883974  0.45087074  0.63363746    -0.03100
C1824       C  0.76456647  0.45972634  0.60624173     0.03700
N1825       N  0.77109776  0.48038920  0.56868194     0.66200
H1826       H  0.80381459  0.45552303  0.59351153     0.15100
H1827       H  0.71428762  0.42298189  0.69175691     0.14800
N1828       N  0.74590346  0.39634328  0.71518931     0.73900
O1829       O  0.78922555  0.50801998  0.57250456    -0.39500
O1830       O  0.76556038  0.47043836  0.53068994    -0.39500
O1831       O  0.75126544  0.40505255  0.75390976    -0.40200
O1832       O  0.72725900  0.36907441  0.70957326    -0.40200
C1833       C  0.69265900  0.27654473  0.67744212    -0.12500
C1834       C  0.70922923  0.27557939  0.64104462     0.04500
C1835       C  0.69375295  0.25324283  0.61085376    -0.07800
C1836       C  0.66292554  0.23272724  0.61751337    -0.08600
C1837       C  0.64603886  0.23373684  0.65332656    -0.03100
C1838       C  0.66126974  0.25622154  0.68345801     0.03700
N1839       N  0.64559124  0.25869103  0.72042137     0.66200
H1840       H  0.70397472  0.29355674  0.70104422     0.15100
H1841       H  0.65193493  0.21636974  0.59292682     0.14800
N1842       N  0.70872362  0.25077547  0.57297094     0.73900
O1843       O  0.64742840  0.24730658  0.75767938    -0.39500
O1844       O  0.63746972  0.27854095  0.71843663    -0.39500
O1845       O  0.71682325  0.23091975  0.57403876    -0.40200
O1846       O  0.70598608  0.26198140  0.53606646    -0.40200
C1847       C  0.98707601  0.38332402  0.69652834    -0.12500
C1848       C  0.97910160  0.39685163  0.66061889     0.04500
C1849       C  0.99603224  0.42825588  0.65272612    -0.07800
C1850       C  0.01939386  0.44536879  0.68109619    -0.08600
C1851       C  0.02755002  0.43215360  0.71739181    -0.03100
C1852       C  0.01101334  0.40055509  0.72467090     0.03700
N1853       N  0.01660503  0.38564117  0.76191238     0.66200
H1854       H  0.97373566  0.35922459  0.70397778     0.15100
H1855       H  0.03144618  0.46952480  0.67387504     0.14800
N1856       N  0.98900639  0.44351848  0.61727605     0.73900
O1857       O  0.99935384  0.37840161  0.79542821    -0.39500
O1858       O  0.03195570  0.37249980  0.75679924    -0.39500
O1859       O  0.97655835  0.45896731  0.62572778    -0.40200
O1860       O  0.00193639  0.44775293  0.58018434    -0.40200
C1861       C  0.82659549  0.33542776  0.85470819    -0.12500
C1862       C  0.85072348  0.36035600  0.83232940     0.04500
C1863       C  0.87606395  0.38032432  0.85671410    -0.07800
C1864       C  0.87673291  0.37499396  0.90242251    -0.08600
C1865       C  0.85251580  0.35013018  0.92486576    -0.03100
C1866       C  0.82732104  0.33001291  0.90033646     0.03700
N1867       N  0.80271892  0.30329535  0.92084859     0.66200
H1868       H  0.80748474  0.31934138  0.83643657     0.15100
H1869       H  0.89589035  0.39107359  0.92061966     0.14800
N1870       N  0.90079166  0.40687520  0.83609426     0.73900
O1871       O  0.77782871  0.30264335  0.92868359    -0.39500
O1872       O  0.80331028  0.27885092  0.92086234    -0.39500
O1873       O  0.89908289  0.43078581  0.83277176    -0.40200
O1874       O  0.92666893  0.40867971  0.83390060    -0.40200
C1875       C  0.82453096  0.33913748  0.40111983    -0.12500
C1876       C  0.85080438  0.35966666  0.42264786     0.04500
C1877       C  0.87415327  0.38404664  0.39749525    -0.07800
C1878       C  0.87081777  0.38730493  0.35194554    -0.08600
C1879       C  0.84471709  0.36645889  0.33027526    -0.03100
C1880       C  0.82134618  0.34212642  0.35558384     0.03700
N1881       N  0.79506722  0.31912081  0.33563578     0.66200
H1882       H  0.80640608  0.32002145  0.41967972     0.15100
H1883       H  0.88911986  0.40617824  0.33327549     0.14800
N1884       N  0.90111849  0.40604871  0.41747706     0.73900
O1885       O  0.79598080  0.29649328  0.32290938    -0.39500
O1886       O  0.76950166  0.31740729  0.34189509    -0.39500
O1887       O  0.92567667  0.40539842  0.41284265    -0.40200
O1888       O  0.90212733  0.42979263  0.42926204    -0.40200
C1889       C  0.91407057  0.26085818  0.08489342    -0.12500
C1890       C  0.90265315  0.27592345  0.05723331     0.04500
C1891       C  0.90287227  0.27332867  0.01111210    -0.07800
C1892       C  0.91513668  0.25660820  0.99365830    -0.08600
C1893       C  0.92792043  0.24275607  0.02115568    -0.03100
C1894       C  0.92695442  0.24470214  0.06737442     0.03700
N1895       N  0.93874208  0.23025915  0.09715884     0.66200
H1896       H  0.91393044  0.26245268  0.12031110     0.15100
H1897       H  0.91553100  0.25526233  0.95821145     0.14800
N1898       N  0.89023819  0.28706272  0.98149540     0.73900
O1899       O  0.96504698  0.24566289  0.11233390    -0.39500
O1900       O  0.92046101  0.20542913  0.11696890    -0.39500
O1901       O  0.90790042  0.31053305  0.95824078    -0.40200
O1902       O  0.86266581  0.27204456  0.97090494    -0.40200
C1903       C  0.72217753  0.42280714  0.16417909    -0.12500
C1904       C  0.72841540  0.44614465  0.13164940     0.04500
C1905       C  0.75547013  0.45797798  0.10635031    -0.07800
C1906       C  0.77534859  0.44638839  0.11346466    -0.08600
C1907       C  0.76885334  0.42231805  0.14493231    -0.03100
C1908       C  0.74172958  0.41057359  0.17062833     0.03700
N1909       N  0.73315005  0.38591045  0.20266095     0.66200
H1910       H  0.70149186  0.41336984  0.18416401     0.15100
H1911       H  0.79591453  0.45624494  0.09317075     0.14800
N1912       N  0.76363367  0.48228976  0.07386214     0.73900
O1913       O  0.73850084  0.39114142  0.24281960    -0.39500
O1914       O  0.71404778  0.35967988  0.19258481    -0.39500
O1915       O  0.78121793  0.50887142  0.08419343    -0.40200
O1916       O  0.75979963  0.47679458  0.03362676    -0.40200
C1917       C  0.69020698  0.27852737  0.16876525    -0.12500
C1918       C  0.70783942  0.27311313  0.13885606     0.04500
C1919       C  0.69374001  0.24692810  0.11541044    -0.07800
C1920       C  0.66270500  0.22718412  0.12151533    -0.08600
C1921       C  0.64442178  0.23303829  0.14975083    -0.03100
C1922       C  0.65872071  0.25902676  0.17406408     0.03700
N1923       N  0.64195863  0.26614491  0.20411613     0.66200
H1924       H  0.70077222  0.29847768  0.18742282     0.15100
H1925       H  0.65280570  0.20761516  0.10205184     0.14800
N1926       N  0.71038518  0.23991599  0.08492937     0.73900
O1927       O  0.64153559  0.25869521  0.24463086    -0.39500
O1928       O  0.63531681  0.28641404  0.19258388    -0.39500
O1929       O  0.71857093  0.22082659  0.09685176    -0.40200
O1930       O  0.70954129  0.24628725  0.04427502    -0.40200
C1931       C  0.99004247  0.42895473  0.19985580    -0.12500
C1932       C  0.98203955  0.40800271  0.16696535     0.04500
C1933       C  0.00012760  0.39419299  0.16224102    -0.07800
C1934       C  0.02476829  0.40099494  0.19055225    -0.08600
C1935       C  0.03235571  0.42184583  0.22335844    -0.03100
C1936       C  0.01448895  0.43578289  0.22776048     0.03700
N1937       N  0.02167908  0.45828363  0.25858486     0.66200
H1938       H  0.97722358  0.44055592  0.20448260     0.15100
H1939       H  0.03870187  0.39053477  0.18585336     0.14800
N1940       N  0.99489151  0.37437550  0.12798676     0.73900
O1941       O  0.03720695  0.48569235  0.24556751    -0.39500
O1942       O  0.00608640  0.45132839  0.29384708    -0.39500
O1943       O  0.01146384  0.38442827  0.09351647    -0.40200
O1944       O  0.98009067  0.34629930  0.13680297    -0.40200
loop_ 
_geom_bond_atom_site_label_1 
_geom_bond_atom_site_label_2 
_geom_bond_distance 
_geom_bond_site_symmetry_2 
_ccdc_geom_bond_type 
Zr1           O2   2.441       .  S
Zr1           O3   2.474       .  S
Zr1           O4   2.469       .  S
Zr1           O7   2.410       .  S
Zr1           O9   2.376       .  S
Zr1          O10   2.387       .  S
Zr1          O11   2.414       .  S
Zr1          O12   2.417       .  S
O2           H58   0.990       .  S
O2           H66   0.990       .  S
O3           C23   1.290       .  A
O4           C25   1.289       .  A
O5          Zr15   2.433       .  S
O5           C24   1.285       .  A
O6          Zr14   2.397       .  S
O6           C25   1.278       .  A
O7           C24   1.279       .  A
O8          Zr16   2.394       .  S
O8           C23   1.278       .  A
O9          Zr14   2.387       .  S
O9          Zr16   2.381       .  S
O10         Zr15   2.377       .  S
O10         Zr16   2.382       .  S
O10          H45   0.965       .  S
O11         Zr14   2.393       .  S
O11         Zr31   2.409       .  S
O11          H48   0.964       .  S
O12         Zr15   2.380       .  S
O12         Zr31   2.403       .  S
Zr13         O38   2.436       .  S
Zr13         O32   2.424       .  S
Zr13         O40   2.462   1_554  S
Zr13         O28   2.511       .  S
Zr13         O19   2.410       .  S
Zr13         O20   2.409       .  S
Zr13         O21   2.382       .  S
Zr13         O22   2.396       .  S
Zr14         O33   2.438       .  S
Zr14         O26   2.436       .  S
Zr14         O27   2.374       .  S
Zr14         O20   2.406       .  S
Zr14         O21   2.396       .  S
Zr15         O17   2.435       .  S
Zr15         O39   2.439       .  S
Zr15         O41   2.403   1_554  S
Zr15         O19   2.394       .  S
Zr15         O22   2.377       .  S
Zr16         O42   2.434       .  S
Zr16         O43   2.437       .  S
Zr16         O18   2.438       .  S
Zr16         O19   2.383       .  S
Zr16         O20   2.375       .  S
O17          H54   0.989       .  S
O18          H49   0.990       .  S
O18          H63   0.990       .  S
O20          H46   0.966       .  S
O21         Zr31   2.369       .  S
O22         Zr31   2.364       .  S
O22          H47   0.965       .  S
C23        C1907   1.497       .  S
C24        C1918   1.476       .  S
C25        C1879   1.483       .  S
O26          H62   0.990       .  S
O27          C29   1.266       .  A
O28          C29   1.293       .  A
C29        C1932   1.497       .  S
O30         Zr31   2.435       .  S
O30          H59   0.990       .  S
Zr31         O34   2.436       .  S
Zr31         O35   2.438       .  S
Zr31         O36   2.466       .  S
O32          C37   1.283       .  A
O33          H50   0.990       .  S
O33          H65   0.990       .  S
O34          H51   0.990       .  S
O35          H55   0.990       .  S
O35          H64   0.990       .  S
O36          C37   1.291       .  A
C37        C1890   1.485       .  S
O38          H57   0.990       .  S
O38          H61   0.990       .  S
O39          H53   0.990       .  S
O39          H60   0.990       .  S
O40          C44   1.294       .  A
O41          C44   1.280       .  A
O42          H52   0.990       .  S
O43          H56   0.990       .  S
C44        C1865   1.483       .  S
Zr67         O68   2.443       .  S
Zr67         O69   2.492       .  S
Zr67         O70   2.473       .  S
Zr67         O73   2.432       .  S
Zr67         O75   2.378       .  S
Zr67         O76   2.386       .  S
Zr67         O77   2.430       .  S
Zr67         O78   2.417       .  S
O68         H124   0.991       .  S
O68         H132   0.990       .  S
O69          C89   1.293       .  A
O70          C91   1.290       .  A
O71         Zr81   2.440       .  S
O71          C90   1.287       .  A
O72         Zr80   2.397       .  S
O72          C91   1.274       .  A
O73          C90   1.284       .  A
O74         Zr82   2.401       .  S
O74          C89   1.279       .  A
O75         Zr80   2.396       .  S
O75         Zr82   2.384       .  S
O76         Zr81   2.372       .  S
O76         Zr82   2.388       .  S
O76         H111   0.964       .  S
O77         Zr80   2.405       .  S
O77         Zr97   2.434       .  S
O77         H114   0.965       .  S
O78         Zr81   2.380       .  S
O78         Zr97   2.398       .  S
Zr79        O104   2.438       .  S
Zr79         O98   2.418       .  S
Zr79        O106   2.457       .  S
Zr79         O94   2.473       .  S
Zr79         O85   2.395       .  S
Zr79         O86   2.414       .  S
Zr79         O87   2.383       .  S
Zr79         O88   2.397       .  S
Zr80         O99   2.442       .  S
Zr80         O92   2.435       .  S
Zr80         O93   2.396       .  S
Zr80         O86   2.400       .  S
Zr80         O87   2.394       .  S
Zr81         O83   2.435       .  S
Zr81        O105   2.437       .  S
Zr81        O107   2.405       .  S
Zr81         O85   2.398       .  S
Zr81         O88   2.386       .  S
Zr82        O108   2.435       .  S
Zr82        O109   2.436       .  S
Zr82         O84   2.437       .  S
Zr82         O85   2.383       .  S
Zr82         O86   2.391       .  S
O83         H120   0.990       .  S
O84         H115   0.990       .  S
O84         H129   0.990       .  S
O86         H112   0.965       .  S
O87         Zr97   2.356       .  S
O88         Zr97   2.375       .  S
O88         H113   0.964       .  S
C89        C1820   1.502       .  S
C90        C1834   1.488       .  S
C91        C1862   1.480       .  S
O92         H128   0.990       .  S
O93          C95   1.267       .  A
O94          C95   1.283       .  A
C95        C1848   1.483       .  S
O96         Zr97   2.439       .  S
O96         H125   0.991       .  S
Zr97        O100   2.436       .  S
Zr97        O101   2.440       .  S
Zr97        O102   2.469       .  S
O98         C103   1.282       .  A
O99         H116   0.988       .  S
O99         H131   0.990       .  S
O100        H117   0.990       .  S
O101        H121   0.989       .  S
O101        H130   0.990       .  S
O102        C103   1.291       .  A
C103       C1806   1.495       .  S
O104        H123   0.990       .  S
O104        H127   0.990       .  S
O105        H119   0.990       .  S
O105        H126   0.990       .  S
O106        C110   1.290       .  A
O107        C110   1.281       .  A
O108        H118   0.990       .  S
O109        H122   0.990       .  S
C110       C1876   1.482       .  S
Zr133       O134   2.441       .  S
Zr133       O135   2.464       .  S
Zr133       O136   2.415       .  S
Zr133       O139   2.375       .  S
Zr133       O141   2.364       .  S
Zr133       O142   2.374       .  S
Zr133       O143   2.412       .  S
Zr133       O144   2.415       .  S
O134        H190   0.991       .  S
O134        H198   0.990       .  S
O135        C155   1.288       .  A
O136        C157   1.281       .  A
O137       Zr147   2.495       .  S
O137        C156   1.295       .  A
O138       Zr146   2.401       .  S
O138        C157   1.277       .  A
O139        C156   1.273       .  A
O140       Zr148   2.390       .  S
O140        C155   1.278       .  A
O141       Zr146   2.379       .  S
O141       Zr148   2.372       .  S
O142       Zr147   2.369       .  S
O142       Zr148   2.387       .  S
O142        H177   0.965       .  S
O143       Zr146   2.382       .  S
O143       Zr163   2.431       .  S
O143        H180   0.966       .  S
O144       Zr147   2.371       .  S
O144       Zr163   2.413       .  S
Zr145       O170   2.438       .  S
Zr145       O164   2.409       .  S
Zr145       O172   2.418   1_554  S
Zr145       O160   2.477       .  S
Zr145       O151   2.402       .  S
Zr145       O152   2.393       .  S
Zr145       O153   2.371       .  S
Zr145       O154   2.401       .  S
Zr146       O165   2.436       .  S
Zr146       O158   2.436       .  S
Zr146       O159   2.363       .  S
Zr146       O152   2.392       .  S
Zr146       O153   2.391       .  S
Zr147       O149   2.437   1_554  S
Zr147       O171   2.437   1_554  S
Zr147       O173   2.414   1_554  S
Zr147       O151   2.410       .  S
Zr147       O154   2.392       .  S
Zr148       O174   2.435       .  S
Zr148       O175   2.435       .  S
Zr148       O150   2.437       .  S
Zr148       O151   2.375       .  S
Zr148       O152   2.385       .  S
O149        H186   0.990   1_556  S
O150        H181   0.990       .  S
O150        H195   0.990       .  S
O152        H178   0.966       .  S
O153       Zr163   2.366       .  S
O154       Zr163   2.360       .  S
O154        H179   0.967       .  S
C155       C1921   1.490       .  S
C156       C1767   1.482       .  S
C157       C1750   1.468       .  S
O158        H194   0.990       .  S
O159        C161   1.273       .  A
O160        C161   1.291       .  A
C161       C1781   1.473       .  S
O162       Zr163   2.435       .  S
O162        H191   0.990       .  S
Zr163       O166   2.434       .  S
Zr163       O167   2.436       .  S
Zr163       O168   2.491       .  S
O164        C169   1.280       .  A
O165        H182   0.990       .  S
O165        H197   0.990       .  S
O166        H183   0.990       .  S
O167        H187   0.990       .  S
O167        H196   0.990       .  S
O168        C169   1.295       .  A
C169       C1795   1.500   1_554  S
O170        H189   0.990       .  S
O170        H193   0.990   1_554  S
O171        H185   0.990       .  S
O171        H192   0.990   1_556  S
O172        C176   1.283       .  A
O173        C176   1.285       .  A
O174        H184   0.990       .  S
O175        H188   0.990       .  S
C176       C1736   1.475       .  S
Zr199       O200   2.431       .  S
Zr199       O201   2.467       .  S
Zr199       O202   2.409       .  S
Zr199       O205   2.374       .  S
Zr199       O207   2.371       .  S
Zr199       O208   2.370       .  S
Zr199       O209   2.414       .  S
Zr199       O210   2.410       .  S
O200        H256   0.989       .  S
O200        H264   0.989       .  S
O201        C221   1.289       .  A
O202        C223   1.279       .  A
O203       Zr213   2.494       .  S
O203        C222   1.297       .  A
O204       Zr212   2.418       .  S
O204        C223   1.282       .  A
O205        C222   1.273       .  A
O206       Zr214   2.406       .  S
O206        C221   1.281       .  A
O207       Zr212   2.383       .  S
O207       Zr214   2.376       .  S
O208       Zr213   2.358       .  S
O208       Zr214   2.386       .  S
O208        H243   0.965       .  S
O209       Zr212   2.391       .  S
O209       Zr229   2.428       .  S
O209        H246   0.966       .  S
O210       Zr213   2.369       .  S
O210       Zr229   2.410       .  S
Zr211       O236   2.438       .  S
Zr211       O230   2.406       .  S
Zr211       O238   2.418       .  S
Zr211       O226   2.463       .  S
Zr211       O217   2.401       .  S
Zr211       O218   2.404       .  S
Zr211       O219   2.375       .  S
Zr211       O220   2.393       .  S
Zr212       O231   2.440       .  S
Zr212       O224   2.437       .  S
Zr212       O225   2.411       .  S
Zr212       O218   2.395       .  S
Zr212       O219   2.393       .  S
Zr213       O215   2.434       .  S
Zr213       O237   2.440       .  S
Zr213       O239   2.409       .  S
Zr213       O217   2.416       .  S
Zr213       O220   2.398       .  S
Zr214       O240   2.436       .  S
Zr214       O241   2.437       .  S
Zr214       O216   2.438       .  S
Zr214       O217   2.388       .  S
Zr214       O218   2.392       .  S
O215        H252   0.990       .  S
O216        H247   0.991       .  S
O216        H261   0.990       .  S
O218        H244   0.965       .  S
O219       Zr229   2.354       .  S
O220       Zr229   2.361       .  S
O220        H245   0.966       .  S
C221       C1837   1.490       .  S
C222       C1694   1.491       .  S
C223       C1739   1.468       .  S
O224        H260   0.990       .  S
O225        C227   1.274       .  A
O226        C227   1.285       .  A
C227       C1708   1.466       .  S
O228       Zr229   2.433       .  S
O228        H257   0.990       .  S
Zr229       O232   2.435       .  S
Zr229       O233   2.437       .  S
Zr229       O234   2.487       .  S
O230        C235   1.280       .  A
O231        H248   0.990       .  S
O231        H263   0.989       .  S
O232        H249   0.990       .  S
O233        H253   0.990       .  S
O233        H262   0.990       .  S
O234        C235   1.294       .  A
C235       C1722   1.497       .  S
O236        H255   0.990       .  S
O236        H259   0.990       .  S
O237        H251   0.990       .  S
O237        H258   0.990       .  S
O238        C242   1.285       .  A
O239        C242   1.281       .  A
O240        H250   0.990       .  S
O241        H254   0.990       .  S
C242       C1753   1.470       .  S
Zr265       O266   2.441       .  S
Zr265       O267   2.514       .  S
Zr265       O268   2.511       .  S
Zr265       O271   2.409       .  S
Zr265       O273   2.374       .  S
Zr265       O274   2.389       .  S
Zr265       O275   2.418       .  S
Zr265       O276   2.333       .  S
O266        H322   0.990       .  S
O266        H330   0.990       .  S
O267        C287   1.298       .  A
O268        C289   1.296       .  A
O269       Zr279   2.453       .  S
O269        C288   1.288       .  A
O270       Zr278   2.398       .  S
O270        C289   1.278       .  A
O271        C288   1.279       .  A
O272       Zr280   2.374       .  S
O272        C287   1.275       .  A
O273       Zr278   2.389       .  S
O273       Zr280   2.387       .  S
O274       Zr279   2.360       .  S
O274       Zr280   2.394       .  S
O274        H309   0.963       .  S
O275       Zr278   2.395       .  S
O275       Zr295   2.422       .  S
O275        H312   0.962       .  S
O276       Zr279   2.269       .  S
O276       Zr295   2.319       .  S
Zr277       O302   2.438       .  S
Zr277       O296   2.426       .  S
Zr277       O304   2.491   1_554  S
Zr277       O292   2.511       .  S
Zr277       O283   2.405       .  S
Zr277       O284   2.410       .  S
Zr277       O285   2.384       .  S
Zr277       O286   2.409       .  S
Zr278       O297   2.439       .  S
Zr278       O290   2.433       .  S
Zr278       O291   2.373       .  S
Zr278       O284   2.407       .  S
Zr278       O285   2.402       .  S
Zr279       O281   2.435       .  S
Zr279       O303   2.438       .  S
Zr279       O305   2.403   1_554  S
Zr279       O283   2.395       .  S
Zr279       O286   2.381       .  S
Zr280       O306   2.434       .  S
Zr280       O307   2.437       .  S
Zr280       O282   2.436       .  S
Zr280       O283   2.376       .  S
Zr280       O284   2.371       .  S
O281        H318   0.990       .  S
O282        H313   0.990       .  S
O282        H327   0.990       .  S
O284        H310   0.965       .  S
O285       Zr295   2.358       .  S
O286       Zr295   2.363       .  S
O286        H311   0.963       .  S
C287       C1764   1.499       .  S
C288       C1904   1.486       .  S
C289       C1655   1.509       .  S
O290        H326   0.990       .  S
O291        C293   1.263       .  A
O292        C293   1.296       .  A
C293       C1669   1.494       .  S
O294       Zr295   2.439       .  S
O294        H323   0.990       .  S
Zr295       O298   2.436       .  S
Zr295       O299   2.438       .  S
Zr295       O300   2.501       .  S
O296        C301   1.283       .  A
O297        H314   0.990       .  S
O297        H329   0.990       .  S
O298        H315   0.990       .  S
O299        H319   0.990       .  S
O299        H328   0.990       .  S
O300        C301   1.299       .  A
C301       C1680   1.506       .  S
O302        H321   0.990   1_554  S
O302        H325   0.990       .  S
O303        H317   0.990       .  S
O303        H324   0.990   1_554  S
O304        C308   1.297       .  A
O305        C308   1.281       .  A
O306        H316   0.990       .  S
O307        H320   0.990       .  S
C308       C1641   1.490       .  S
Zr331       O332   2.442       .  S
Zr331       O333   2.493       .  S
Zr331       O334   2.498       .  S
Zr331       O337   2.410       .  S
Zr331       O339   2.375       .  S
Zr331       O340   2.393       .  S
Zr331       O341   2.415       .  S
Zr331       O342   2.425       .  S
O332        H388   0.990       .  S
O332        H396   0.990       .  S
O333        C353   1.293       .  A
O334        C355   1.294       .  A
O335       Zr345   2.482       .  S
O335        C354   1.293       .  A
O336       Zr344   2.388       .  S
O336        C355   1.276       .  A
O337        C354   1.280       .  A
O338       Zr346   2.382       .  S
O338        C353   1.274       .  A
O339       Zr344   2.386       .  S
O339       Zr346   2.378       .  S
O340       Zr345   2.371       .  S
O340       Zr346   2.390       .  S
O340        H375   0.964       .  S
O341       Zr344   2.394       .  S
O341       Zr361   2.419       .  S
O341        H378   0.965       .  S
O342       Zr345   2.384       .  S
O342       Zr361   2.412       .  S
Zr343       O368   2.438       .  S
Zr343       O362   2.427       .  S
Zr343       O370   2.479       .  S
Zr343       O358   2.516       .  S
Zr343       O349   2.402       .  S
Zr343       O350   2.410       .  S
Zr343       O351   2.374       .  S
Zr343       O352   2.407       .  S
Zr344       O363   2.439       .  S
Zr344       O356   2.434       .  S
Zr344       O357   2.373       .  S
Zr344       O350   2.402       .  S
Zr344       O351   2.395       .  S
Zr345       O347   2.436       .  S
Zr345       O369   2.438       .  S
Zr345       O371   2.436       .  S
Zr345       O349   2.398       .  S
Zr345       O352   2.386       .  S
Zr346       O372   2.434       .  S
Zr346       O373   2.435       .  S
Zr346       O348   2.438       .  S
Zr346       O349   2.375       .  S
Zr346       O350   2.379       .  S
O347        H384   0.990       .  S
O348        H379   0.990       .  S
O348        H393   0.990       .  S
O350        H376   0.966       .  S
O351       Zr361   2.360       .  S
O352       Zr361   2.372       .  S
O352        H377   0.965       .  S
C353       C1697   1.495       .  S
C354       C1823   1.497       .  S
C355       C1638   1.493       .  S
O356        H392   0.990       .  S
O357        C359   1.265       .  A
O358        C359   1.297       .  A
C359       C1613   1.499       .  S
O360       Zr361   2.439       .  S
O360        H389   0.990       .  S
Zr361       O364   2.438       .  S
Zr361       O365   2.438       .  S
Zr361       O366   2.478       .  S
O362        C367   1.283       .  A
O363        H380   0.990       .  S
O363        H395   0.990       .  S
O364        H381   0.990       .  S
O365        H385   0.990       .  S
O365        H394   0.990       .  S
O366        C367   1.294       .  A
C367       C1624   1.495       .  S
O368        H387   0.990       .  S
O368        H391   0.989       .  S
O369        H383   0.990       .  S
O369        H390   0.990       .  S
O370        C374   1.296       .  A
O371        C374   1.288       .  A
O372        H382   0.990       .  S
O373        H386   0.990       .  S
C374       C1652   1.504       .  S
Zr397       O398   2.440       .  S
Zr397       O399   2.490       .  S
Zr397       O400   2.450       .  S
Zr397       O403   2.387       .  S
Zr397       O405   2.376       .  S
Zr397       O406   2.384       .  S
Zr397       O407   2.429       .  S
Zr397       O408   2.425       .  S
O398        H454   0.990       .  S
O398        H462   0.990       .  S
O399        C419   1.291       .  A
O400        C421   1.283       .  A
O401       Zr411   2.480       .  S
O401        C420   1.292       .  A
O402       Zr410   2.403       .  S
O402        C421   1.278       .  A
O403        C420   1.275       .  A
O404       Zr412   2.395       .  S
O404        C419   1.276       .  A
O405       Zr410   2.393       .  S
O405       Zr412   2.386       .  S
O406       Zr411   2.370       .  S
O406       Zr412   2.386       .  S
O406        H441   0.965       .  S
O407       Zr410   2.401       .  S
O407       Zr427   2.430       .  S
O407        H444   0.965       .  S
O408       Zr411   2.384       .  S
O408       Zr427   2.419       .  S
Zr409       O434   2.440       .  S
Zr409       O428   2.401       .  S
Zr409       O436   2.428       .  S
Zr409       O424   2.454       .  S
Zr409       O415   2.394       .  S
Zr409       O416   2.416       .  S
Zr409       O417   2.384       .  S
Zr409       O418   2.397       .  S
Zr410       O429   2.444       .  S
Zr410       O422   2.434       .  S
Zr410       O423   2.394       .  S
Zr410       O416   2.400       .  S
Zr410       O417   2.400       .  S
Zr411       O413   2.436       .  S
Zr411       O435   2.436       .  S
Zr411       O437   2.425       .  S
Zr411       O415   2.407       .  S
Zr411       O418   2.407       .  S
Zr412       O438   2.435       .  S
Zr412       O439   2.436       .  S
Zr412       O414   2.439       .  S
Zr412       O415   2.383       .  S
Zr412       O416   2.372       .  S
O413        H450   0.990       .  S
O414        H445   0.990       .  S
O414        H459   0.990       .  S
O416        H442   0.964       .  S
O417       Zr427   2.354       .  S
O418       Zr427   2.375       .  S
O418        H443   0.966       .  S
C419       C1596   1.495       .  S
C420       C1582   1.482       .  S
C421       C1554   1.488       .  S
O422        H458   0.990       .  S
O423        C425   1.268       .  A
O424        C425   1.280       .  A
C425       C1778   1.479       .  S
O426       Zr427   2.434       .  S
O426        H455   0.990       .  S
Zr427       O430   2.436       .  S
Zr427       O431   2.437       .  S
Zr427       O432   2.489       .  S
O428        C433   1.278       .  A
O429        H446   0.990       .  S
O429        H461   0.990       .  S
O430        H447   0.990       .  S
O431        H451   0.990       .  S
O431        H460   0.989       .  S
O432        C433   1.292       .  A
C433       C1568   1.502       .  S
O434        H453   0.990       .  S
O434        H457   0.990       .  S
O435        H449   0.990       .  S
O435        H456   0.990       .  S
O436        C440   1.286       .  A
O437        C440   1.283       .  A
O438        H448   0.990       .  S
O439        H452   0.990       .  S
C440       C1540   1.486       .  S
Zr463       O464   2.440       .  S
Zr463       O465   2.493       .  S
Zr463       O466   2.425       .  S
Zr463       O469   2.381       .  S
Zr463       O471   2.368       .  S
Zr463       O472   2.373       .  S
Zr463       O473   2.423       .  S
Zr463       O474   2.420       .  S
O464        H520   0.990       .  S
O464        H528   0.990       .  S
O465        C485   1.294       .  A
O466        C487   1.283       .  A
O467       Zr477   2.475       .  S
O467        C486   1.292       .  A
O468       Zr476   2.436       .  S
O468        C487   1.283       .  A
O469        C486   1.274       .  A
O470       Zr478   2.389       .  S
O470        C485   1.277       .  A
O471       Zr476   2.386       .  S
O471       Zr478   2.380       .  S
O472       Zr477   2.373       .  S
O472       Zr478   2.386       .  S
O472        H507   0.964       .  S
O473       Zr476   2.396       .  S
O473       Zr493   2.435       .  S
O473        H510   0.964       .  S
O474       Zr477   2.374       .  S
O474       Zr493   2.414       .  S
Zr475       O500   2.438       .  S
Zr475       O494   2.405       .  S
Zr475       O502   2.432       .  S
Zr475       O490   2.462       .  S
Zr475       O481   2.394       .  S
Zr475       O482   2.409       .  S
Zr475       O483   2.382       .  S
Zr475       O484   2.399       .  S
Zr476       O495   2.438       .  S
Zr476       O488   2.437       .  S
Zr476       O489   2.397       .  S
Zr476       O482   2.405       .  S
Zr476       O483   2.402       .  S
Zr477       O479   2.438       .  S
Zr477       O501   2.437       .  S
Zr477       O503   2.417       .  S
Zr477       O481   2.407       .  S
Zr477       O484   2.392       .  S
Zr478       O504   2.435       .  S
Zr478       O505   2.435       .  S
Zr478       O480   2.436       .  S
Zr478       O481   2.379       .  S
Zr478       O482   2.383       .  S
O479        H516   0.990       .  S
O480        H511   0.990       .  S
O480        H525   0.990       .  S
O482        H508   0.965       .  S
O483       Zr493   2.349       .  S
O484       Zr493   2.368       .  S
O484        H509   0.965       .  S
C485       C1526   1.503       .  S
C486       C1512   1.470       .  S
C487       C1543   1.483       .  S
O488        H524   0.990       .  S
O489        C491   1.270       .  A
O490        C491   1.282       .  A
C491       C1711   1.474       .  S
O492       Zr493   2.435       .  S
O492        H521   0.990       .  S
Zr493       O496   2.435       .  S
Zr493       O497   2.437       .  S
Zr493       O498   2.493       .  S
O494        C499   1.278       .  A
O495        H512   0.989       .  S
O495        H527   0.990       .  S
O496        H513   0.990       .  S
O497        H517   0.990       .  S
O497        H526   0.990       .  S
O498        C499   1.295       .  A
C499       C1501   1.490       .  S
O500        H519   0.990       .  S
O500        H523   0.990       .  S
O501        H515   0.990       .  S
O501        H522   0.990       .  S
O502        C506   1.285       .  A
O503        C506   1.284       .  A
O504        H514   0.990       .  S
O505        H518   0.990       .  S
C506       C1557   1.477       .  S
Zr529       O530   2.442       .  S
Zr529       O531   2.471       .  S
Zr529       O532   2.435       .  S
Zr529       O535   2.391       .  S
Zr529       O537   2.371       .  S
Zr529       O538   2.380       .  S
Zr529       O539   2.417       .  S
Zr529       O540   2.417       .  S
O530        H586   0.990       .  S
O530        H594   0.990       .  S
O531        C551   1.290       .  A
O532        C553   1.283       .  A
O533       Zr543   2.484       .  S
O533        C552   1.295       .  A
O534       Zr542   2.402       .  S
O534        C553   1.276       .  A
O535        C552   1.276       .  A
O536       Zr544   2.397       .  S
O536        C551   1.276       .  A
O537       Zr542   2.391       .  S
O537       Zr544   2.382       .  S
O538       Zr543   2.371       .  S
O538       Zr544   2.388       .  S
O538        H573   0.965       .  S
O539       Zr542   2.394       .  S
O539       Zr559   2.427       .  S
O539        H576   0.966       .  S
O540       Zr543   2.379       .  S
O540       Zr559   2.407       .  S
Zr541       O566   2.435       .  S
Zr541       O560   2.396       .  S
Zr541       O568   2.434       .  S
Zr541       O556   2.465       .  S
Zr541       O547   2.399       .  S
Zr541       O548   2.408       .  S
Zr541       O549   2.382       .  S
Zr541       O550   2.403       .  S
Zr542       O561   2.442       .  S
Zr542       O554   2.435       .  S
Zr542       O555   2.391       .  S
Zr542       O548   2.401       .  S
Zr542       O549   2.391       .  S
Zr543       O545   2.436       .  S
Zr543       O567   2.437       .  S
Zr543       O569   2.429       .  S
Zr543       O547   2.410       .  S
Zr543       O550   2.395       .  S
Zr544       O570   2.435       .  S
Zr544       O571   2.435       .  S
Zr544       O546   2.436       .  S
Zr544       O547   2.384       .  S
Zr544       O548   2.382       .  S
O545        H582   0.990       .  S
O546        H577   0.990       .  S
O546        H591   0.990       .  S
O548        H574   0.963       .  S
O549       Zr559   2.347       .  S
O550       Zr559   2.372       .  S
O550        H575   0.966       .  S
C551       C1585   1.470       .  S
C552       C1473   1.488       .  S
C553       C1456   1.465       .  S
O554        H590   0.990       .  S
O555        C557   1.266       .  A
O556        C557   1.282       .  A
C557       C1935   1.482       .  S
O558       Zr559   2.436       .  S
O558        H587   0.990       .  S
Zr559       O562   2.435       .  S
Zr559       O563   2.437       .  S
Zr559       O564   2.475       .  S
O560        C565   1.276       .  A
O561        H578   0.989       .  S
O561        H593   0.990       .  S
O562        H579   0.990       .  S
O563        H583   0.990       .  S
O563        H592   0.990       .  S
O564        C565   1.293       .  A
C565       C1484   1.491       .  S
O566        H585   0.990       .  S
O566        H589   0.990       .  S
O567        H581   0.990       .  S
O567        H588   0.990       .  S
O568        C572   1.286       .  A
O569        C572   1.286       .  A
O570        H580   0.990       .  S
O571        H584   0.990       .  S
C572       C1442   1.487       .  S
Zr595       O596   2.440       .  S
Zr595       O597   2.467       .  S
Zr595       O598   2.446       .  S
Zr595       O601   2.400       .  S
Zr595       O603   2.375       .  S
Zr595       O604   2.380       .  S
Zr595       O605   2.413       .  S
Zr595       O606   2.419       .  S
O596        H652   0.990       .  S
O596        H660   0.990       .  S
O597        C617   1.289       .  A
O598        C619   1.284       .  A
O599       Zr609   2.467       .  S
O599        C618   1.291       .  A
O600       Zr608   2.414       .  S
O600        C619   1.281       .  A
O601        C618   1.278       .  A
O602       Zr610   2.357       .  S
O602        C617   1.271       .  A
O603       Zr608   2.378       .  S
O603       Zr610   2.388       .  S
O604       Zr609   2.375       .  S
O604       Zr610   2.382       .  S
O604        H639   0.964       .  S
O605       Zr608   2.392       .  S
O605       Zr625   2.429       .  S
O605        H642   0.965       .  S
O606       Zr609   2.379       .  S
O606       Zr625   2.414       .  S
Zr607       O632   2.435       .  S
Zr607       O626   2.398       .  S
Zr607       O634   2.444       .  S
Zr607       O622   2.508       .  S
Zr607       O613   2.408       .  S
Zr607       O614   2.403       .  S
Zr607       O615   2.375       .  S
Zr607       O616   2.404       .  S
Zr608       O627   2.437       .  S
Zr608       O620   2.434       .  S
Zr608       O621   2.379       .  S
Zr608       O614   2.409       .  S
Zr608       O615   2.396       .  S
Zr609       O611   2.436       .  S
Zr609       O633   2.437       .  S
Zr609       O635   2.415       .  S
Zr609       O613   2.404       .  S
Zr609       O616   2.395       .  S
Zr610       O636   2.435       .  S
Zr610       O637   2.436       .  S
Zr610       O612   2.438       .  S
Zr610       O613   2.366       .  S
Zr610       O614   2.365       .  S
O611        H648   0.989       .  S
O612        H643   0.991       .  S
O612        H657   0.990       .  S
O614        H640   0.966       .  S
O615       Zr625   2.359       .  S
O616       Zr625   2.356       .  S
O616        H641   0.965       .  S
C617       C1515   1.470       .  S
C618       C1417   1.493       .  S
C619       C1445   1.487       .  S
O620        H656   0.990       .  S
O621        C623   1.264       .  A
O622        C623   1.292       .  A
C623       C1851   1.499       .  S
O624       Zr625   2.434       .  S
O624        H653   0.990       .  S
Zr625       O628   2.436       .  S
Zr625       O629   2.437       .  S
Zr625       O630   2.499       .  S
O626        C631   1.277       .  A
O627        H644   0.990       .  S
O627        H659   0.990       .  S
O628        H645   0.990       .  S
O629        H649   0.990       .  S
O629        H658   0.990       .  S
O630        C631   1.299       .  A
C631       C1428   1.500       .  S
O632        H651   0.990       .  S
O632        H655   0.990       .  S
O633        H647   0.990       .  S
O633        H654   0.990       .  S
O634        C638   1.291       .  A
O635        C638   1.283       .  A
O636        H646   0.990       .  S
O637        H650   0.990       .  S
C638       C1459   1.475       .  S
Zr661       O662   2.445       .  S
Zr661       O663   2.497       .  S
Zr661       O664   2.461       .  S
Zr661       O667   2.415       .  S
Zr661       O669   2.375       .  S
Zr661       O670   2.378       .  S
Zr661       O671   2.426       .  S
Zr661       O672   2.422       .  S
O662        H718   0.990       .  S
O662        H726   0.991       .  S
O663        C683   1.297       .  A
O664        C685   1.287       .  A
O665       Zr675   2.460       .  S
O665        C684   1.290       .  A
O666       Zr674   2.422       .  S
O666        C685   1.279       .  A
O667        C684   1.281       .  A
O668       Zr676   2.385       .  S
O668        C683   1.274       .  A
O669       Zr674   2.396       .  S
O669       Zr676   2.388       .  S
O670       Zr675   2.378       .  S
O670       Zr676   2.394       .  S
O670        H705   0.965       .  S
O671       Zr674   2.403       .  S
O671       Zr691   2.431       .  S
O671        H708   0.964       .  S
O672       Zr675   2.380       .  S
O672       Zr691   2.412       .  S
Zr673       O698   2.437       .  S
Zr673       O692   2.410       .  S
Zr673       O700   2.464       .  S
Zr673       O688   2.476       .  S
Zr673       O679   2.392       .  S
Zr673       O680   2.421       .  S
Zr673       O681   2.385       .  S
Zr673       O682   2.398       .  S
Zr674       O693   2.441       .  S
Zr674       O686   2.434       .  S
Zr674       O687   2.404       .  S
Zr674       O680   2.411       .  S
Zr674       O681   2.402       .  S
Zr675       O677   2.435       .  S
Zr675       O699   2.438       .  S
Zr675       O701   2.413       .  S
Zr675       O679   2.406       .  S
Zr675       O682   2.397       .  S
Zr676       O702   2.433       .  S
Zr676       O703   2.437       .  S
Zr676       O678   2.437       .  S
Zr676       O679   2.377       .  S
Zr676       O680   2.386       .  S
O677        H714   0.990       .  S
O678        H709   0.990       .  S
O678        H723   0.990       .  S
O680        H706   0.966       .  S
O681       Zr691   2.347       .  S
O682       Zr691   2.373       .  S
O682        H707   0.965       .  S
C683       C1470   1.500       .  S
C684       C1599   1.491       .  S
C685       C1389   1.483       .  S
O686        H722   0.990       .  S
O687        C689   1.267       .  A
O688        C689   1.285       .  A
C689       C1666   1.478       .  S
O690       Zr691   2.438       .  S
O690        H719   0.991       .  S
Zr691       O694   2.437       .  S
Zr691       O695   2.438       .  S
Zr691       O696   2.485       .  S
O692        C697   1.278       .  A
O693        H710   0.989       .  S
O693        H725   0.990       .  S
O694        H711   0.990       .  S
O695        H715   0.990       .  S
O695        H724   0.990       .  S
O696        C697   1.293       .  A
C697       C1400   1.486       .  S
O698        H717   0.990       .  S
O698        H721   0.990       .  S
O699        H713   0.990       .  S
O699        H720   0.990       .  S
O700        C704   1.294       .  A
O701        C704   1.281       .  A
O702        H712   0.990       .  S
O703        H716   0.990       .  S
C704       C1372   1.491       .  S
Zr727       O728   2.443       .  S
Zr727       O729   2.489       .  S
Zr727       O730   2.469       .  S
Zr727       O733   2.417       .  S
Zr727       O735   2.378       .  S
Zr727       O736   2.385       .  S
Zr727       O737   2.422       .  S
Zr727       O738   2.421       .  S
O728        H784   0.990       .  S
O728        H792   0.990       .  S
O729        C749   1.293       .  A
O730        C751   1.290       .  A
O731       Zr741   2.465       .  S
O731        C750   1.291       .  A
O732       Zr740   2.408       .  S
O732        C751   1.277       .  A
O733        C750   1.281       .  A
O734       Zr742   2.390       .  S
O734        C749   1.277       .  A
O735       Zr740   2.396       .  S
O735       Zr742   2.386       .  S
O736       Zr741   2.383       .  S
O736       Zr742   2.391       .  S
O736        H771   0.963       .  S
O737       Zr740   2.405       .  S
O737       Zr757   2.421       .  S
O737        H774   0.964       .  S
O738       Zr741   2.382       .  S
O738       Zr757   2.408       .  S
Zr739       O764   2.437       .  S
Zr739       O758   2.412       .  S
Zr739       O766   2.462       .  S
Zr739       O754   2.486       .  S
Zr739       O745   2.396       .  S
Zr739       O746   2.414       .  S
Zr739       O747   2.381       .  S
Zr739       O748   2.399       .  S
Zr740       O759   2.437       .  S
Zr740       O752   2.437       .  S
Zr740       O753   2.401       .  S
Zr740       O746   2.404       .  S
Zr740       O747   2.399       .  S
Zr741       O743   2.435       .  S
Zr741       O765   2.439       .  S
Zr741       O767   2.424       .  S
Zr741       O745   2.403       .  S
Zr741       O748   2.394       .  S
Zr742       O768   2.435       .  S
Zr742       O769   2.436       .  S
Zr742       O744   2.437       .  S
Zr742       O745   2.379       .  S
Zr742       O746   2.388       .  S
O743        H780   0.990       .  S
O744        H775   0.990       .  S
O744        H789   0.990       .  S
O746        H772   0.966       .  S
O747       Zr757   2.353       .  S
O748       Zr757   2.376       .  S
O748        H773   0.966       .  S
C749       C1414   1.501       .  S
C750       C1529   1.494       .  S
C751       C1375   1.488       .  S
O752        H788   0.990       .  S
O753        C755   1.266       .  A
O754        C755   1.288       .  A
C755       C1610   1.485       .  S
O756       Zr757   2.438       .  S
O756        H785   0.990       .  S
Zr757       O760   2.438       .  S
Zr757       O761   2.439       .  S
Zr757       O762   2.468       .  S
O758        C763   1.279       .  A
O759        H776   0.989       .  S
O759        H791   0.990       .  S
O760        H777   0.990       .  S
O761        H781   0.990       .  S
O761        H790   0.990       .  S
O762        C763   1.289       .  A
C763       C1358   1.478       .  S
O764        H783   0.990       .  S
O764        H787   0.990       .  S
O765        H779   0.990       .  S
O765        H786   0.990       .  S
O766        C770   1.293       .  A
O767        C770   1.284       .  A
O768        H778   0.990       .  S
O769        H782   0.990       .  S
C770       C1386   1.489       .  S
Zr793       O794   2.438       .  S
Zr793       O795   2.440   1_545  S
Zr793       O796   2.517       .  S
Zr793       O799   2.457       .  S
Zr793       O801   2.376       .  S
Zr793       O802   2.403   1_545  S
Zr793       O803   2.403       .  S
Zr793       O804   2.407       .  S
O794        H850   0.990       .  S
O794        H858   0.990       .  S
O795        C815   1.286       .  A
O796        C817   1.299       .  A
O797       Zr807   2.417   1_545  S
O797        C816   1.284       .  A
O798       Zr806   2.366       .  S
O798        C817   1.271       .  A
O799        C816   1.291       .  A
O800       Zr808   2.488       .  S
O800        C815   1.294       .  A
O801       Zr806   2.401       .  S
O801       Zr808   2.374   1_545  S
O802       Zr807   2.391       .  S
O802       Zr808   2.362       .  S
O802        H837   0.964       .  S
O803       Zr806   2.391       .  S
O803       Zr823   2.391       .  S
O803        H840   0.965       .  S
O804       Zr807   2.408   1_545  S
O804       Zr823   2.378       .  S
Zr805       O830   2.439   1_546  S
Zr805       O824   2.505       .  S
Zr805       O832   2.409   1_545  S
Zr805       O820   2.484   1_556  S
Zr805       O811   2.433   1_545  S
Zr805       O812   2.424   1_545  S
Zr805       O813   2.375       .  S
Zr805       O814   2.385       .  S
Zr806       O825   2.437   1_556  S
Zr806       O818   2.436   1_556  S
Zr806       O819   2.391   1_556  S
Zr806       O812   2.384   1_545  S
Zr806       O813   2.388       .  S
Zr807       O809   2.435       .  S
Zr807       O831   2.435       .  S
Zr807       O833   2.477       .  S
Zr807       O811   2.386       .  S
Zr807       O814   2.368   1_565  S
Zr808       O834   2.435       .  S
Zr808       O835   2.434   1_556  S
Zr808       O810   2.436       .  S
Zr808       O811   2.423       .  S
Zr808       O812   2.423       .  S
O809        H846   0.990   1_565  S
O810        H841   0.990       .  S
O810        H855   0.990   1_556  S
O812        H838   0.950   1_556  S
O813       Zr823   2.381       .  S
O814       Zr823   2.387       .  S
O814        H839   0.964       .  S
C815       C1498   1.511       .  S
C816       C1305   1.482       .  S
C817       C1792   1.483       .  S
O818        H854   0.990       .  S
O819        C821   1.277       .  A
O820        C821   1.292       .  A
C821       C1319   1.499       .  S
O822       Zr823   2.435       .  S
O822        H851   0.990       .  S
Zr823       O826   2.435       .  S
Zr823       O827   2.438       .  S
Zr823       O828   2.394       .  S
O824        C829   1.296       .  A
O825        H842   0.990       .  S
O825        H857   0.990   1_554  S
O826        H843   0.990       .  S
O827        H847   0.990       .  S
O827        H856   0.990       .  S
O828        C829   1.276       .  A
C829       C1344   1.504       .  S
O830        H849   0.990   1_565  S
O830        H853   0.991       .  S
O831        H845   0.989       .  S
O831        H852   0.990       .  S
O832        C836   1.279       .  A
O833        C836   1.292       .  A
O834        H844   0.990       .  S
O835        H848   0.990       .  S
C836       C1330   1.501       .  S
Zr859       O860   2.437       .  S
Zr859       O861   2.440   1_545  S
Zr859       O862   2.519       .  S
Zr859       O865   2.477       .  S
Zr859       O867   2.378       .  S
Zr859       O868   2.409   1_545  S
Zr859       O869   2.405       .  S
Zr859       O870   2.402       .  S
O860        H916   0.990       .  S
O860        H924   0.990       .  S
O861        C881   1.285       .  A
O862        C883   1.299       .  A
O863       Zr873   2.420       .  S
O863        C882   1.285   1_565  A
O864       Zr872   2.367       .  S
O864        C883   1.271       .  A
O865        C882   1.295       .  A
O866       Zr874   2.462       .  S
O866        C881   1.289       .  A
O867       Zr872   2.398       .  S
O867       Zr874   2.376   1_545  S
O868       Zr873   2.393       .  S
O868       Zr874   2.370       .  S
O868        H903   0.965       .  S
O869       Zr872   2.393       .  S
O869       Zr889   2.391       .  S
O869        H906   0.965       .  S
O870       Zr873   2.405   1_545  S
O870       Zr889   2.370       .  S
Zr871       O896   2.441   1_545  S
Zr871       O890   2.478       .  S
Zr871       O898   2.401   1_545  S
Zr871       O886   2.461       .  S
Zr871       O877   2.425   1_545  S
Zr871       O878   2.413   1_545  S
Zr871       O879   2.375       .  S
Zr871       O880   2.384       .  S
Zr872       O891   2.436       .  S
Zr872       O884   2.436       .  S
Zr872       O885   2.396       .  S
Zr872       O878   2.384   1_545  S
Zr872       O879   2.383       .  S
Zr873       O875   2.436       .  S
Zr873       O897   2.436       .  S
Zr873       O899   2.476       .  S
Zr873       O877   2.385       .  S
Zr873       O880   2.374   1_565  S
Zr874       O900   2.436       .  S
Zr874       O901   2.434       .  S
Zr874       O876   2.436       .  S
Zr874       O877   2.411       .  S
Zr874       O878   2.414       .  S
O875        H912   0.990       .  S
O876        H907   0.990       .  S
O876        H921   0.990       .  S
O878        H904   0.966       .  S
O879       Zr889   2.379       .  S
O880       Zr889   2.387       .  S
O880        H905   0.965       .  S
C881       C1571   1.492       .  S
C882       C1316   1.496       .  S
C883       C1725   1.483       .  S
O884        H920   0.990       .  S
O885        C887   1.278       .  A
O886        C887   1.287       .  A
C887       C1302   1.484       .  S
O888       Zr889   2.435       .  S
O888        H917   0.990       .  S
Zr889       O892   2.435       .  S
Zr889       O893   2.437       .  S
Zr889       O894   2.393       .  S
O890        C895   1.290       .  A
O891        H908   0.990       .  S
O891        H923   0.990       .  S
O892        H909   0.990       .  S
O893        H913   0.990       .  S
O893        H922   0.990       .  S
O894        C895   1.278       .  A
C895       C1288   1.495       .  S
O896        H915   0.990       .  S
O896        H919   0.990       .  S
O897        H911   0.990       .  S
O897        H918   0.990       .  S
O898        C902   1.277       .  A
O899        C902   1.292       .  A
O900        H910   0.990       .  S
O901        H914   0.990       .  S
C902       C1277   1.495       .  S
Zr925       O926   2.437   1_556  S
Zr925       O927   2.424   1_456  S
Zr925       O928   2.526       .  S
Zr925       O931   2.465   1_556  S
Zr925       O933   2.383   1_455  S
Zr925       O934   2.414   1_455  S
Zr925       O935   2.396       .  S
Zr925       O936   2.400   1_556  S
O926        H982   0.990       .  S
O926        H990   0.990       .  S
O927        C947   1.280       .  A
O928        C949   1.301       .  A
O929       Zr939   2.427       .  S
O929        C948   1.287   1_655  A
O930       Zr938   2.363       .  S
O930        C949   1.271       .  A
O931        C948   1.292       .  A
O932       Zr940   2.463       .  S
O932        C947   1.289   1_556  A
O933       Zr938   2.403   1_655  S
O933       Zr940   2.380       .  S
O934       Zr939   2.402   1_556  S
O934       Zr940   2.366       .  S
O934        H969   0.965   1_556  S
O935       Zr938   2.395       .  S
O935       Zr955   2.381       .  S
O935        H972   0.966       .  S
O936       Zr939   2.405   1_455  S
O936       Zr955   2.358   1_554  S
Zr937       O962   2.441       .  S
Zr937       O956   2.483   1_655  S
Zr937       O964   2.419       .  S
Zr937       O952   2.473       .  S
Zr937       O943   2.425       .  S
Zr937       O944   2.413       .  S
Zr937       O945   2.370   1_655  S
Zr937       O946   2.382   1_655  S
Zr938       O957   2.432       .  S
Zr938       O950   2.437       .  S
Zr938       O951   2.389       .  S
Zr938       O944   2.387   1_455  S
Zr938       O945   2.379       .  S
Zr939       O941   2.435       .  S
Zr939       O963   2.436       .  S
Zr939       O965   2.486   1_554  S
Zr939       O943   2.389   1_554  S
Zr939       O946   2.377   1_654  S
Zr940       O966   2.437       .  S
Zr940       O967   2.435       .  S
Zr940       O942   2.437       .  S
Zr940       O943   2.416       .  S
Zr940       O944   2.412       .  S
O941        H978   0.990       .  S
O942        H973   0.990       .  S
O942        H987   0.989       .  S
O944        H970   0.966       .  S
O945       Zr955   2.384       .  S
O946       Zr955   2.385       .  S
O946        H971   0.963       .  S
C947       C1893   1.487       .  S
C948       C1249   1.496       .  S
C949       C1431   1.486       .  S
O950        H986   0.990       .  S
O951        C953   1.275       .  A
O952        C953   1.293   1_655  A
C953       C1232   1.490       .  S
O954       Zr955   2.437   1_554  S
O954        H983   0.990       .  S
Zr955       O958   2.435       .  S
Zr955       O959   2.438   1_556  S
Zr955       O960   2.369       .  S
O956        C961   1.291       .  A
O957        H974   0.990       .  S
O957        H989   0.989       .  S
O958        H975   0.990       .  S
O959        H979   0.990       .  S
O959        H988   0.990       .  S
O960        C961   1.274       .  A
C961       C1347   1.470       .  S
O962        H981   0.991       .  S
O962        H985   0.990       .  S
O963        H977   0.990       .  S
O963        H984   0.990       .  S
O964        C968   1.281       .  A
O965        C968   1.293       .  A
O966        H976   0.990       .  S
O967        H980   0.990       .  S
C968       C1263   1.511       .  S
Zr991       O992   2.438       .  S
Zr991       O993   2.429   1_455  S
Zr991       O994   2.498       .  S
Zr991       O997   2.462       .  S
Zr991       O999   2.376   1_455  S
Zr991      O1000   2.401   1_455  S
Zr991      O1001   2.400       .  S
Zr991      O1002   2.398       .  S
O992       H1048   0.990       .  S
O992       H1056   0.990       .  S
O993       C1013   1.282       .  A
O994       C1015   1.295       .  A
O995      Zr1005   2.419       .  S
O995       C1014   1.282       .  A
O996      Zr1004   2.376       .  S
O996       C1015   1.274       .  A
O997       C1014   1.293   1_455  A
O998      Zr1006   2.479       .  S
O998       C1013   1.291       .  A
O999      Zr1004   2.403   1_655  S
O999      Zr1006   2.374       .  S
O1000     Zr1005   2.403       .  S
O1000     Zr1006   2.368       .  S
O1000      H1035   0.966       .  S
O1001     Zr1004   2.394       .  S
O1001     Zr1021   2.382       .  S
O1001      H1038   0.967       .  S
O1002     Zr1005   2.402   1_455  S
O1002     Zr1021   2.366       .  S
Zr1003     O1028   2.436       .  S
Zr1003     O1022   2.473   1_655  S
Zr1003     O1030   2.422       .  S
Zr1003     O1018   2.462   1_655  S
Zr1003     O1009   2.425       .  S
Zr1003     O1010   2.411       .  S
Zr1003     O1011   2.375   1_655  S
Zr1003     O1012   2.380   1_655  S
Zr1004     O1023   2.436       .  S
Zr1004     O1016   2.436       .  S
Zr1004     O1017   2.410       .  S
Zr1004     O1010   2.387   1_455  S
Zr1004     O1011   2.378       .  S
Zr1005     O1007   2.431       .  S
Zr1005     O1029   2.436       .  S
Zr1005     O1031   2.465       .  S
Zr1005     O1009   2.389       .  S
Zr1005     O1012   2.385   1_655  S
Zr1006     O1032   2.435       .  S
Zr1006     O1033   2.435       .  S
Zr1006     O1008   2.438       .  S
Zr1006     O1009   2.424       .  S
Zr1006     O1010   2.415       .  S
O1007      H1044   0.990       .  S
O1008      H1039   0.990       .  S
O1008      H1053   0.990       .  S
O1010      H1036   0.964       .  S
O1011     Zr1021   2.386       .  S
O1012     Zr1021   2.387       .  S
O1012      H1037   0.966       .  S
C1013      C1809   1.499       .  S
C1014      C1235   1.494       .  S
C1015      C1487   1.477       .  S
O1016      H1052   0.990       .  S
O1017      C1019   1.281       .  A
O1018      C1019   1.288       .  A
C1019      C1246   1.498       .  S
O1020     Zr1021   2.435       .  S
O1020      H1049   0.990       .  S
Zr1021     O1024   2.436       .  S
Zr1021     O1025   2.438       .  S
Zr1021     O1026   2.381       .  S
O1022      C1027   1.290       .  A
O1023      H1040   0.990       .  S
O1023      H1055   0.990       .  S
O1024      H1041   0.990       .  S
O1025      H1045   0.990       .  S
O1025      H1054   0.990       .  S
O1026      C1027   1.274       .  A
C1027      C1291   1.466       .  S
O1028      H1047   0.990       .  S
O1028      H1051   0.990       .  S
O1029      H1043   0.990       .  S
O1029      H1050   0.990       .  S
O1030      C1034   1.281       .  A
O1031      C1034   1.288       .  A
O1032      H1042   0.990       .  S
O1033      H1046   0.990       .  S
C1034      C1218   1.504       .  S
Zr1057     O1058   2.443   1_556  S
Zr1057     O1059   2.504       .  S
Zr1057     O1060   2.484   1_556  S
Zr1057     O1063   2.431       .  S
Zr1057     O1065   2.380       .  S
Zr1057     O1066   2.382       .  S
Zr1057     O1067   2.426   1_556  S
Zr1057     O1068   2.425       .  S
O1058      H1114   0.990       .  S
O1058      H1122   0.990       .  S
O1059      C1079   1.296       .  A
O1060      C1081   1.293       .  A
O1061     Zr1071   2.474       .  S
O1061      C1080   1.292       .  A
O1062     Zr1070   2.401       .  S
O1062      C1081   1.276       .  A
O1063      C1080   1.285       .  A
O1064     Zr1072   2.386       .  S
O1064      C1079   1.277       .  A
O1065     Zr1070   2.393   1_556  S
O1065     Zr1072   2.381       .  S
O1066     Zr1071   2.373       .  S
O1066     Zr1072   2.391       .  S
O1066      H1101   0.965       .  S
O1067     Zr1070   2.398       .  S
O1067     Zr1087   2.417   1_554  S
O1067      H1104   0.966       .  S
O1068     Zr1071   2.385       .  S
O1068     Zr1087   2.417       .  S
Zr1069     O1094   2.438       .  S
Zr1069     O1088   2.429       .  S
Zr1069     O1096   2.484       .  S
Zr1069     O1084   2.529       .  S
Zr1069     O1075   2.401       .  S
Zr1069     O1076   2.401       .  S
Zr1069     O1077   2.375       .  S
Zr1069     O1078   2.405       .  S
Zr1070     O1089   2.439       .  S
Zr1070     O1082   2.435       .  S
Zr1070     O1083   2.383   1_554  S
Zr1070     O1076   2.393   1_554  S
Zr1070     O1077   2.399   1_554  S
Zr1071     O1073   2.435       .  S
Zr1071     O1095   2.438       .  S
Zr1071     O1097   2.420       .  S
Zr1071     O1075   2.408       .  S
Zr1071     O1078   2.396       .  S
Zr1072     O1098   2.435       .  S
Zr1072     O1099   2.437       .  S
Zr1072     O1074   2.436       .  S
Zr1072     O1075   2.376       .  S
Zr1072     O1076   2.386       .  S
O1073      H1110   0.990       .  S
O1074      H1105   0.990       .  S
O1074      H1119   0.990       .  S
O1076      H1102   0.966       .  S
O1077     Zr1087   2.372       .  S
O1078     Zr1087   2.370       .  S
O1078      H1103   0.966       .  S
C1079      C1333   1.499       .  S
C1080      C1260   1.513       .  S
C1081      C1204   1.491       .  S
O1082      H1118   0.990       .  S
O1083      C1085   1.275       .  A
O1084      C1085   1.303       .  A
C1085      C1683   1.497       .  S
O1086     Zr1087   2.438   1_554  S
O1086      H1115   0.991       .  S
Zr1087     O1090   2.437   1_556  S
Zr1087     O1091   2.439       .  S
Zr1087     O1092   2.466       .  S
O1088      C1093   1.285       .  A
O1089      H1106   0.990       .  S
O1089      H1121   0.990       .  S
O1090      H1107   0.990   1_554  S
O1091      H1111   0.990       .  S
O1091      H1120   0.990       .  S
O1092      C1093   1.289       .  A
C1093      C1361   1.499       .  S
O1094      H1113   0.990       .  S
O1094      H1117   0.990       .  S
O1095      H1109   0.990       .  S
O1095      H1116   0.990       .  S
O1096      C1100   1.297       .  A
O1097      C1100   1.283       .  A
O1098      H1108   0.990       .  S
O1099      H1112   0.990       .  S
C1100      C1190   1.498       .  S
Zr1123     O1124   2.443       .  S
Zr1123     O1125   2.512       .  S
Zr1123     O1126   2.483       .  S
Zr1123     O1129   2.435       .  S
Zr1123     O1131   2.378       .  S
Zr1123     O1132   2.380       .  S
Zr1123     O1133   2.428       .  S
Zr1123     O1134   2.430       .  S
O1124      H1180   0.990       .  S
O1124      H1188   0.990       .  S
O1125      C1145   1.297       .  A
O1126      C1147   1.293       .  A
O1127     Zr1137   2.457       .  S
O1127      C1146   1.289       .  A
O1128     Zr1136   2.405       .  S
O1128      C1147   1.278       .  A
O1129      C1146   1.285       .  A
O1130     Zr1138   2.375       .  S
O1130      C1145   1.275       .  A
O1131     Zr1136   2.391       .  S
O1131     Zr1138   2.382       .  S
O1132     Zr1137   2.373       .  S
O1132     Zr1138   2.391       .  S
O1132      H1167   0.965       .  S
O1133     Zr1136   2.397       .  S
O1133     Zr1153   2.421       .  S
O1133      H1170   0.965       .  S
O1134     Zr1137   2.383       .  S
O1134     Zr1153   2.426       .  S
Zr1135     O1160   2.438       .  S
Zr1135     O1154   2.423       .  S
Zr1135     O1162   2.481       .  S
Zr1135     O1150   2.504       .  S
Zr1135     O1141   2.399       .  S
Zr1135     O1142   2.399       .  S
Zr1135     O1143   2.380       .  S
Zr1135     O1144   2.398       .  S
Zr1136     O1155   2.438       .  S
Zr1136     O1148   2.434       .  S
Zr1136     O1149   2.390       .  S
Zr1136     O1142   2.392       .  S
Zr1136     O1143   2.403       .  S
Zr1137     O1139   2.435       .  S
Zr1137     O1161   2.438       .  S
Zr1137     O1163   2.410       .  S
Zr1137     O1141   2.410       .  S
Zr1137     O1144   2.391       .  S
Zr1138     O1164   2.435       .  S
Zr1138     O1165   2.437       .  S
Zr1138     O1140   2.437       .  S
Zr1138     O1141   2.380       .  S
Zr1138     O1142   2.378       .  S
O1139      H1176   0.990       .  S
O1140      H1171   0.990       .  S
O1140      H1185   0.990       .  S
O1142      H1168   0.966       .  S
O1143     Zr1153   2.370       .  S
O1144     Zr1153   2.366       .  S
O1144      H1169   0.965       .  S
C1145      C1274   1.504       .  S
C1146      C1221   1.505       .  S
C1147      C1193   1.494       .  S
O1148      H1184   0.990       .  S
O1149      C1151   1.276       .  A
O1150      C1151   1.299       .  A
C1151      C1627   1.486       .  S
O1152     Zr1153   2.438       .  S
O1152      H1181   0.990       .  S
Zr1153     O1156   2.438       .  S
Zr1153     O1157   2.438       .  S
Zr1153     O1158   2.489       .  S
O1154      C1159   1.284       .  A
O1155      H1172   0.990       .  S
O1155      H1187   0.990       .  S
O1156      H1173   0.990       .  S
O1157      H1177   0.990       .  S
O1157      H1186   0.990       .  S
O1158      C1159   1.293       .  A
C1159      C1403   1.511       .  S
O1160      H1179   0.990       .  S
O1160      H1183   0.990       .  S
O1161      H1175   0.990       .  S
O1161      H1182   0.990       .  S
O1162      C1166   1.296       .  A
O1163      C1166   1.280       .  A
O1164      H1174   0.990       .  S
O1165      H1178   0.990       .  S
C1166      C1207   1.493       .  S
C1189      C1190   1.404       .  A
C1189      C1194   1.406       .  A
C1189      H1196   1.084       .  S
C1190      C1191   1.421       .  A
C1191      C1192   1.402       .  A
C1191      N1198   1.429       .  S
C1192      C1193   1.401       .  A
C1192      H1197   1.084       .  S
C1193      C1194   1.419       .  A
C1194      N1195   1.429       .  S
N1195      O1199   1.262       .  A
N1195      O1200   1.262       .  A
N1198      O1202   1.262       .  A
N1198      O1201   1.262       .  A
C1203      C1204   1.402       .  A
C1203      C1208   1.403       .  A
C1203      H1210   1.084       .  S
C1204      C1205   1.419       .  A
C1205      C1206   1.402       .  A
C1205      N1212   1.429       .  S
C1206      C1207   1.402       .  A
C1206      H1211   1.084       .  S
C1207      C1208   1.420       .  A
C1208      N1209   1.429       .  S
N1209      O1213   1.262       .  A
N1209      O1214   1.262       .  A
N1212      O1216   1.262       .  A
N1212      O1215   1.262       .  A
C1217      C1218   1.411       .  A
C1217      C1222   1.403   1_545  A
C1217      H1224   1.083       .  S
C1218      C1219   1.414       .  A
C1219      C1220   1.408   1_545  A
C1219      N1226   1.428       .  S
C1220      C1221   1.412       .  A
C1220      H1225   1.083       .  S
C1221      C1222   1.415       .  A
C1222      N1223   1.429       .  S
N1223      O1227   1.262       .  A
N1223      O1228   1.262       .  A
N1226      O1230   1.262       .  A
N1226      O1229   1.262       .  A
C1231      C1232   1.400   1_655  A
C1231      C1236   1.399       .  A
C1231      H1238   1.084       .  S
C1232      C1233   1.420       .  A
C1233      C1234   1.400       .  A
C1233      N1240   1.430       .  S
C1234      C1235   1.404   1_455  A
C1234      H1239   1.084       .  S
C1235      C1236   1.421       .  A
C1236      N1237   1.428       .  S
N1237      O1241   1.262       .  A
N1237      O1242   1.262       .  A
N1240      O1244   1.262       .  A
N1240      O1243   1.262       .  A
C1245      C1246   1.412       .  A
C1245      C1250   1.401       .  A
C1245      H1252   1.083       .  S
C1246      C1247   1.413       .  A
C1247      C1248   1.400       .  A
C1247      N1254   1.427   1_455  S
C1248      C1249   1.410       .  A
C1248      H1253   1.083   1_455  S
C1249      C1250   1.413       .  A
C1250      N1251   1.428       .  S
N1251      O1255   1.262       .  A
N1251      O1256   1.262       .  A
N1254      O1258   1.262   1_655  A
N1254      O1257   1.262       .  A
C1259      C1260   1.414       .  A
C1259      C1264   1.408   1_565  A
C1259      H1266   1.083   1_556  S
C1260      C1261   1.415       .  A
C1261      C1262   1.409   1_565  A
C1261      N1268   1.429       .  S
C1262      C1263   1.414       .  A
C1262      H1267   1.083       .  S
C1263      C1264   1.413       .  A
C1264      N1265   1.428   1_556  S
N1265      O1269   1.262       .  A
N1265      O1270   1.262       .  A
N1268      O1272   1.262       .  A
N1268      O1271   1.262       .  A
C1273      C1274   1.418       .  A
C1273      C1278   1.399   1_655  A
C1273      H1280   1.083       .  S
C1274      C1275   1.410       .  A
C1275      C1276   1.408   1_655  A
C1275      N1282   1.428       .  S
C1276      C1277   1.415       .  A
C1276      H1281   1.082       .  S
C1277      C1278   1.405       .  A
C1278      N1279   1.429       .  S
N1279      O1283   1.262       .  A
N1279      O1284   1.262       .  A
N1282      O1286   1.262       .  A
N1282      O1285   1.262       .  A
C1287      C1288   1.414       .  A
C1287      C1292   1.393       .  A
C1287      H1294   1.083       .  S
C1288      C1289   1.414       .  A
C1289      C1290   1.406       .  A
C1289      N1296   1.428       .  S
C1290      C1291   1.405       .  A
C1290      H1295   1.084       .  S
C1291      C1292   1.401       .  A
C1292      N1293   1.429       .  S
N1293      O1297   1.262       .  A
N1293      O1298   1.262       .  A
N1296      O1300   1.261       .  A
N1296      O1299   1.262       .  A
C1301      C1302   1.408       .  A
C1301      C1306   1.395       .  A
C1301      H1308   1.084       .  S
C1302      C1303   1.410       .  A
C1303      C1304   1.403       .  A
C1303      N1310   1.428       .  S
C1304      C1305   1.410       .  A
C1304      H1309   1.084       .  S
C1305      C1306   1.407       .  A
C1306      N1307   1.428       .  S
N1307      O1311   1.262   1_545  A
N1307      O1312   1.262       .  A
N1310      O1314   1.262       .  A
N1310      O1313   1.262       .  A
C1315      C1316   1.413       .  A
C1315      C1320   1.404       .  A
C1315      H1322   1.083       .  S
C1316      C1317   1.410       .  A
C1317      C1318   1.400       .  A
C1317      N1324   1.428       .  S
C1318      C1319   1.414       .  A
C1318      H1323   1.083       .  S
C1319      C1320   1.411       .  A
C1320      N1321   1.428       .  S
N1321      O1325   1.262   1_545  A
N1321      O1326   1.262       .  A
N1324      O1328   1.262       .  A
N1324      O1327   1.262       .  A
C1329      C1330   1.417       .  A
C1329      C1334   1.410   1_455  A
C1329      H1336   1.083       .  S
C1330      C1331   1.409       .  A
C1331      C1332   1.399   1_455  A
C1331      N1338   1.428       .  S
C1332      C1333   1.413       .  A
C1332      H1337   1.084       .  S
C1333      C1334   1.409       .  A
C1334      N1335   1.428   1_556  S
N1335      O1339   1.262       .  A
N1335      O1340   1.262       .  A
N1338      O1342   1.262       .  A
N1338      O1341   1.262       .  A
C1343      C1344   1.414       .  A
C1343      C1348   1.415       .  A
C1343      H1350   1.083       .  S
C1344      C1345   1.426       .  A
C1345      C1346   1.392       .  A
C1345      N1352   1.430       .  S
C1346      C1347   1.393       .  A
C1346      H1351   1.085       .  S
C1347      C1348   1.409       .  A
C1348      N1349   1.430       .  S
N1349      O1353   1.262       .  A
N1349      O1354   1.262       .  A
N1352      O1356   1.262       .  A
N1352      O1355   1.262       .  A
C1357      C1358   1.404       .  A
C1357      C1362   1.407       .  A
C1357      H1364   1.084       .  S
C1358      C1359   1.405       .  A
C1359      C1360   1.402       .  A
C1359      N1366   1.429       .  S
C1360      C1361   1.411       .  A
C1360      H1365   1.084       .  S
C1361      C1362   1.416       .  A
C1362      N1363   1.428       .  S
N1363      O1367   1.262       .  A
N1363      O1368   1.262       .  A
N1366      O1370   1.262       .  A
N1366      O1369   1.262       .  A
C1371      C1372   1.402       .  A
C1371      C1376   1.398       .  A
C1371      H1378   1.084       .  S
C1372      C1373   1.419       .  A
C1373      C1374   1.401       .  A
C1373      N1380   1.429       .  S
C1374      C1375   1.402       .  A
C1374      H1379   1.083       .  S
C1375      C1376   1.418       .  A
C1376      N1377   1.428       .  S
N1377      O1381   1.262       .  A
N1377      O1382   1.262       .  A
N1380      O1384   1.262       .  A
N1380      O1383   1.262       .  A
C1385      C1386   1.405       .  A
C1385      C1390   1.404   1_556  A
C1385      H1392   1.084       .  S
C1386      C1387   1.416       .  A
C1387      C1388   1.400   1_556  A
C1387      N1394   1.429       .  S
C1388      C1389   1.401       .  A
C1388      H1393   1.084       .  S
C1389      C1390   1.414       .  A
C1390      N1391   1.429       .  S
N1391      O1395   1.262       .  A
N1391      O1396   1.261       .  A
N1394      O1398   1.262       .  A
N1394      O1397   1.262       .  A
C1399      C1400   1.406       .  A
C1399      C1404   1.413       .  A
C1399      H1406   1.084       .  S
C1400      C1401   1.406       .  A
C1401      C1402   1.402       .  A
C1401      N1408   1.429       .  S
C1402      C1403   1.414       .  A
C1402      H1407   1.083       .  S
C1403      C1404   1.419       .  A
C1404      N1405   1.427       .  S
N1405      O1409   1.262       .  A
N1405      O1410   1.262       .  A
N1408      O1412   1.262       .  A
N1408      O1411   1.262       .  A
C1413      C1414   1.416       .  A
C1413      C1418   1.400       .  A
C1413      H1420   1.083       .  S
C1414      C1415   1.412       .  A
C1415      C1416   1.404       .  A
C1415      N1422   1.429       .  S
C1416      C1417   1.412       .  A
C1416      H1421   1.082       .  S
C1417      C1418   1.406       .  A
C1418      N1419   1.429       .  S
N1419      O1423   1.262       .  A
N1419      O1424   1.262       .  A
N1422      O1426   1.262       .  A
N1422      O1425   1.262       .  A
C1427      C1428   1.400       .  A
C1427      C1432   1.402       .  A
C1427      H1434   1.084       .  S
C1428      C1429   1.424       .  A
C1429      C1430   1.408       .  A
C1429      N1436   1.427       .  S
C1430      C1431   1.397       .  A
C1430      H1435   1.084       .  S
C1431      C1432   1.419       .  A
C1432      N1433   1.428       .  S
N1433      O1437   1.262       .  A
N1433      O1438   1.262       .  A
N1436      O1440   1.261       .  A
N1436      O1439   1.260       .  A
C1441      C1442   1.407       .  A
C1441      C1446   1.400       .  A
C1441      H1448   1.084       .  S
C1442      C1443   1.414       .  A
C1443      C1444   1.397       .  A
C1443      N1450   1.429       .  S
C1444      C1445   1.407       .  A
C1444      H1449   1.084       .  S
C1445      C1446   1.413       .  A
C1446      N1447   1.428       .  S
N1447      O1451   1.262       .  A
N1447      O1452   1.262       .  A
N1450      O1454   1.262       .  A
N1450      O1453   1.262       .  A
C1455      C1456   1.399       .  A
C1455      C1460   1.397   1_554  A
C1455      H1462   1.084       .  S
C1456      C1457   1.409       .  A
C1457      C1458   1.395   1_554  A
C1457      N1464   1.429       .  S
C1458      C1459   1.402       .  A
C1458      H1463   1.084       .  S
C1459      C1460   1.416       .  A
C1460      N1461   1.429       .  S
N1461      O1465   1.262       .  A
N1461      O1466   1.262       .  A
N1464      O1468   1.261       .  A
N1464      O1467   1.262       .  A
C1469      C1470   1.403       .  A
C1469      C1474   1.404       .  A
C1469      H1476   1.084       .  S
C1470      C1471   1.427       .  A
C1471      C1472   1.401       .  A
C1471      N1478   1.430       .  S
C1472      C1473   1.396       .  A
C1472      H1477   1.084       .  S
C1473      C1474   1.419       .  A
C1474      N1475   1.429       .  S
N1475      O1479   1.261       .  A
N1475      O1480   1.262       .  A
N1478      O1482   1.262       .  A
N1478      O1481   1.262       .  A
C1483      C1484   1.401       .  A
C1483      C1488   1.400       .  A
C1483      H1490   1.084       .  S
C1484      C1485   1.422       .  A
C1485      C1486   1.404       .  A
C1485      N1492   1.430       .  S
C1486      C1487   1.398       .  A
C1486      H1491   1.083       .  S
C1487      C1488   1.414       .  A
C1488      N1489   1.428       .  S
N1489      O1493   1.261       .  A
N1489      O1494   1.262       .  A
N1492      O1496   1.262       .  A
N1492      O1495   1.262       .  A
C1497      C1498   1.415       .  A
C1497      C1502   1.410       .  A
C1497      H1504   1.082       .  S
C1498      C1499   1.417       .  A
C1499      C1500   1.412       .  A
C1499      N1506   1.428       .  S
C1500      C1501   1.407       .  A
C1500      H1505   1.084       .  S
C1501      C1502   1.405       .  A
C1502      N1503   1.429       .  S
N1503      O1507   1.262       .  A
N1503      O1508   1.262       .  A
N1506      O1510   1.262       .  A
N1506      O1509   1.262       .  A
C1511      C1512   1.409       .  A
C1511      C1516   1.404       .  A
C1511      H1518   1.083       .  S
C1512      C1513   1.405       .  A
C1513      C1514   1.393       .  A
C1513      N1520   1.428       .  S
C1514      C1515   1.406       .  A
C1514      H1519   1.085       .  S
C1515      C1516   1.406       .  A
C1516      N1517   1.428       .  S
N1517      O1521   1.262       .  A
N1517      O1522   1.262       .  A
N1520      O1524   1.262       .  A
N1520      O1523   1.262       .  A
C1525      C1526   1.415       .  A
C1525      C1530   1.397       .  A
C1525      H1532   1.083       .  S
C1526      C1527   1.412       .  A
C1527      C1528   1.410       .  A
C1527      N1534   1.428       .  S
C1528      C1529   1.413       .  A
C1528      H1533   1.083       .  S
C1529      C1530   1.407       .  A
C1530      N1531   1.429       .  S
N1531      O1535   1.262       .  A
N1531      O1536   1.262       .  A
N1534      O1538   1.262       .  A
N1534      O1537   1.262       .  A
C1539      C1540   1.406       .  A
C1539      C1544   1.396       .  A
C1539      H1546   1.083       .  S
C1540      C1541   1.415       .  A
C1541      C1542   1.397       .  A
C1541      N1548   1.429       .  S
C1542      C1543   1.405       .  A
C1542      H1547   1.082       .  S
C1543      C1544   1.412       .  A
C1544      N1545   1.427       .  S
N1545      O1549   1.262       .  A
N1545      O1550   1.262       .  A
N1548      O1552   1.262       .  A
N1548      O1551   1.262       .  A
C1553      C1554   1.411   1_556  A
C1553      C1558   1.396       .  A
C1553      H1560   1.083   1_556  S
C1554      C1555   1.414   1_554  A
C1555      C1556   1.397       .  A
C1555      N1562   1.428   1_556  S
C1556      C1557   1.404       .  A
C1556      H1561   1.084       .  S
C1557      C1558   1.408       .  A
C1558      N1559   1.430       .  S
N1559      O1563   1.262       .  A
N1559      O1564   1.262       .  A
N1562      O1566   1.262       .  A
N1562      O1565   1.262       .  A
C1567      C1568   1.409       .  A
C1567      C1572   1.397       .  A
C1567      H1574   1.084       .  S
C1568      C1569   1.415       .  A
C1569      C1570   1.415       .  A
C1569      N1576   1.427       .  S
C1570      C1571   1.409       .  A
C1570      H1575   1.084       .  S
C1571      C1572   1.408       .  A
C1572      N1573   1.426       .  S
N1573      O1577   1.261       .  A
N1573      O1578   1.262       .  A
N1576      O1580   1.262       .  A
N1576      O1579   1.262       .  A
C1581      C1582   1.408       .  A
C1581      C1586   1.400       .  A
C1581      H1588   1.084       .  S
C1582      C1583   1.410       .  A
C1583      C1584   1.403       .  A
C1583      N1590   1.428       .  S
C1584      C1585   1.404       .  A
C1584      H1589   1.084       .  S
C1585      C1586   1.406       .  A
C1586      N1587   1.428       .  S
N1587      O1591   1.262       .  A
N1587      O1592   1.262       .  A
N1590      O1594   1.262       .  A
N1590      O1593   1.262       .  A
C1595      C1596   1.413       .  A
C1595      C1600   1.398       .  A
C1595      H1602   1.083       .  S
C1596      C1597   1.411       .  A
C1597      C1598   1.407       .  A
C1597      N1604   1.428       .  S
C1598      C1599   1.412       .  A
C1598      H1603   1.084       .  S
C1599      C1600   1.408       .  A
C1600      N1601   1.429       .  S
N1601      O1605   1.262       .  A
N1601      O1606   1.262       .  A
N1604      O1608   1.262       .  A
N1604      O1607   1.262       .  A
C1609      C1610   1.395       .  A
C1609      C1614   1.399       .  A
C1609      H1616   1.084       .  S
C1610      C1611   1.418       .  A
C1611      C1612   1.408       .  A
C1611      N1618   1.428       .  S
C1612      C1613   1.404       .  A
C1612      H1617   1.084       .  S
C1613      C1614   1.427       .  A
C1614      N1615   1.429       .  S
N1615      O1619   1.262       .  A
N1615      O1620   1.262       .  A
N1618      O1622   1.262       .  A
N1618      O1621   1.262       .  A
C1623      C1624   1.402       .  A
C1623      C1628   1.403       .  A
C1623      H1630   1.084       .  S
C1624      C1625   1.418       .  A
C1625      C1626   1.409       .  A
C1625      N1632   1.428       .  S
C1626      C1627   1.403       .  A
C1626      H1631   1.084       .  S
C1627      C1628   1.416       .  A
C1628      N1629   1.429       .  S
N1629      O1633   1.262       .  A
N1629      O1634   1.262       .  A
N1632      O1636   1.262       .  A
N1632      O1635   1.262       .  A
C1637      C1638   1.413       .  A
C1637      C1642   1.406       .  A
C1637      H1644   1.084       .  S
C1638      C1639   1.410       .  A
C1639      C1640   1.401       .  A
C1639      N1646   1.427       .  S
C1640      C1641   1.409       .  A
C1640      H1645   1.084       .  S
C1641      C1642   1.409       .  A
C1642      N1643   1.428       .  S
N1643      O1647   1.262       .  A
N1643      O1648   1.262       .  A
N1646      O1650   1.262       .  A
N1646      O1649   1.262       .  A
C1651      C1652   1.414       .  A
C1651      C1656   1.409       .  A
C1651      H1658   1.083       .  S
C1652      C1653   1.411       .  A
C1653      C1654   1.404       .  A
C1653      N1660   1.429       .  S
C1654      C1655   1.416       .  A
C1654      H1659   1.083       .  S
C1655      C1656   1.413       .  A
C1656      N1657   1.427       .  S
N1657      O1661   1.261       .  A
N1657      O1662   1.262       .  A
N1660      O1664   1.262       .  A
N1660      O1663   1.262       .  A
C1665      C1666   1.394       .  A
C1665      C1670   1.397       .  A
C1665      H1672   1.084       .  S
C1666      C1667   1.415       .  A
C1667      C1668   1.407       .  A
C1667      N1674   1.428       .  S
C1668      C1669   1.404       .  A
C1668      H1673   1.083       .  S
C1669      C1670   1.426       .  A
C1670      N1671   1.430       .  S
N1671      O1675   1.262       .  A
N1671      O1676   1.262       .  A
N1674      O1678   1.262       .  A
N1674      O1677   1.262       .  A
C1679      C1680   1.403       .  A
C1679      C1684   1.408   1_554  A
C1679      H1686   1.084       .  S
C1680      C1681   1.422   1_554  A
C1681      C1682   1.413       .  A
C1681      N1688   1.429   1_556  S
C1682      C1683   1.403       .  A
C1682      H1687   1.084       .  S
C1683      C1684   1.419       .  A
C1684      N1685   1.429       .  S
N1685      O1689   1.262   1_556  A
N1685      O1690   1.262       .  A
N1688      O1692   1.262   1_554  A
N1688      O1691   1.262       .  A
C1693      C1694   1.418       .  A
C1693      C1698   1.409       .  A
C1693      H1700   1.083       .  S
C1694      C1695   1.405       .  A
C1695      C1696   1.397       .  A
C1695      N1702   1.428       .  S
C1696      C1697   1.413       .  A
C1696      H1701   1.083       .  S
C1697      C1698   1.408       .  A
C1698      N1699   1.429       .  S
N1699      O1703   1.262       .  A
N1699      O1704   1.262       .  A
N1702      O1706   1.262       .  A
N1702      O1705   1.262       .  A
C1707      C1708   1.400       .  A
C1707      C1712   1.394   1_545  A
C1707      H1714   1.081       .  S
C1708      C1709   1.406       .  A
C1709      C1710   1.401   1_545  A
C1709      N1716   1.429       .  S
C1710      C1711   1.410       .  A
C1710      H1715   1.084       .  S
C1711      C1712   1.408       .  A
C1712      N1713   1.429       .  S
N1713      O1717   1.262       .  A
N1713      O1718   1.262   1_565  A
N1716      O1720   1.262       .  A
N1716      O1719   1.262       .  A
C1721      C1722   1.408       .  A
C1721      C1726   1.404       .  A
C1721      H1728   1.084       .  S
C1722      C1723   1.412       .  A
C1723      C1724   1.410       .  A
C1723      N1730   1.427       .  S
C1724      C1725   1.409       .  A
C1724      H1729   1.084       .  S
C1725      C1726   1.408       .  A
C1726      N1727   1.426       .  S
N1727      O1731   1.260       .  A
N1727      O1732   1.262       .  A
N1730      O1734   1.262       .  A
N1730      O1733   1.262       .  A
C1735      C1736   1.403       .  A
C1735      C1740   1.388       .  A
C1735      H1742   1.084       .  S
C1736      C1737   1.413       .  A
C1737      C1738   1.396       .  A
C1737      N1744   1.428       .  S
C1738      C1739   1.403       .  A
C1738      H1743   1.084       .  S
C1739      C1740   1.409       .  A
C1740      N1741   1.427       .  S
N1741      O1745   1.262       .  A
N1741      O1746   1.262       .  A
N1744      O1748   1.262       .  A
N1744      O1747   1.262       .  A
C1749      C1750   1.402       .  A
C1749      C1754   1.391       .  A
C1749      H1756   1.084       .  S
C1750      C1751   1.411       .  A
C1751      C1752   1.394       .  A
C1751      N1758   1.429       .  S
C1752      C1753   1.403       .  A
C1752      H1757   1.084       .  S
C1753      C1754   1.412       .  A
C1754      N1755   1.429       .  S
N1755      O1759   1.262       .  A
N1755      O1760   1.262       .  A
N1758      O1762   1.262       .  A
N1758      O1761   1.262       .  A
C1763      C1764   1.415       .  A
C1763      C1768   1.401       .  A
C1763      H1770   1.084       .  S
C1764      C1765   1.413       .  A
C1765      C1766   1.406       .  A
C1765      N1772   1.427       .  S
C1766      C1767   1.409       .  A
C1766      H1771   1.084       .  S
C1767      C1768   1.404       .  A
C1768      N1769   1.428       .  S
N1769      O1773   1.262       .  A
N1769      O1774   1.262       .  A
N1772      O1776   1.261       .  A
N1772      O1775   1.262       .  A
C1777      C1778   1.410       .  A
C1777      C1782   1.403   1_565  A
C1777      H1784   1.084       .  S
C1778      C1779   1.410       .  A
C1779      C1780   1.394   1_565  A
C1779      N1786   1.429       .  S
C1780      C1781   1.406       .  A
C1780      H1785   1.085       .  S
C1781      C1782   1.406       .  A
C1782      N1783   1.428       .  S
N1783      O1787   1.262       .  A
N1783      O1788   1.262       .  A
N1786      O1790   1.262       .  A
N1786      O1789   1.262       .  A
C1791      C1792   1.409       .  A
C1791      C1796   1.407       .  A
C1791      H1798   1.084       .  S
C1792      C1793   1.409       .  A
C1793      C1794   1.406       .  A
C1793      N1800   1.429       .  S
C1794      C1795   1.412       .  A
C1794      H1799   1.084       .  S
C1795      C1796   1.412       .  A
C1796      N1797   1.428       .  S
N1797      O1801   1.262       .  A
N1797      O1802   1.262   1_556  A
N1800      O1804   1.262       .  A
N1800      O1803   1.262       .  A
C1805      C1806   1.403       .  A
C1805      C1810   1.399       .  A
C1805      H1812   1.084       .  S
C1806      C1807   1.414       .  A
C1807      C1808   1.417       .  A
C1807      N1814   1.429       .  S
C1808      C1809   1.412       .  A
C1808      H1813   1.083       .  S
C1809      C1810   1.415       .  A
C1810      N1811   1.429       .  S
N1811      O1815   1.262       .  A
N1811      O1816   1.262       .  A
N1814      O1818   1.262       .  A
N1814      O1817   1.262       .  A
C1819      C1820   1.415       .  A
C1819      C1824   1.403       .  A
C1819      H1826   1.083       .  S
C1820      C1821   1.412       .  A
C1821      C1822   1.406       .  A
C1821      N1828   1.429       .  S
C1822      C1823   1.413       .  A
C1822      H1827   1.083       .  S
C1823      C1824   1.408       .  A
C1824      N1825   1.428       .  S
N1825      O1829   1.262       .  A
N1825      O1830   1.262       .  A
N1828      O1832   1.262       .  A
N1828      O1831   1.262       .  A
C1833      C1834   1.412       .  A
C1833      C1838   1.409       .  A
C1833      H1840   1.084       .  S
C1834      C1835   1.410       .  A
C1835      C1836   1.391       .  A
C1835      N1842   1.429       .  S
C1836      C1837   1.408       .  A
C1836      H1841   1.084       .  S
C1837      C1838   1.411       .  A
C1838      N1839   1.428       .  S
N1839      O1843   1.262       .  A
N1839      O1844   1.262       .  A
N1842      O1846   1.262       .  A
N1842      O1845   1.262       .  A
C1847      C1848   1.410       .  A
C1847      C1852   1.408   1_655  A
C1847      H1854   1.084       .  S
C1848      C1849   1.404       .  A
C1849      C1850   1.395   1_655  A
C1849      N1856   1.429       .  S
C1850      C1851   1.414       .  A
C1850      H1855   1.083       .  S
C1851      C1852   1.410       .  A
C1852      N1853   1.424       .  S
N1853      O1857   1.261   1_455  A
N1853      O1858   1.262       .  A
N1856      O1860   1.262   1_655  A
N1856      O1859   1.262       .  A
C1861      C1862   1.399       .  A
C1861      C1866   1.399       .  A
C1861      H1868   1.084       .  S
C1862      C1863   1.417       .  A
C1863      C1864   1.400       .  A
C1863      N1870   1.429       .  S
C1864      C1865   1.400       .  A
C1864      H1869   1.084       .  S
C1865      C1866   1.418       .  A
C1866      N1867   1.429       .  S
N1867      O1871   1.262       .  A
N1867      O1872   1.262       .  A
N1870      O1874   1.262       .  A
N1870      O1873   1.262       .  A
C1875      C1876   1.406       .  A
C1875      C1880   1.397       .  A
C1875      H1882   1.084       .  S
C1876      C1877   1.410       .  A
C1877      C1878   1.400       .  A
C1877      N1884   1.428       .  S
C1878      C1879   1.409       .  A
C1878      H1883   1.084       .  S
C1879      C1880   1.411       .  A
C1880      N1881   1.428       .  S
N1881      O1885   1.262       .  A
N1881      O1886   1.262       .  A
N1884      O1888   1.262       .  A
N1884      O1887   1.262       .  A
C1889      C1890   1.401       .  A
C1889      C1894   1.404       .  A
C1889      H1896   1.084       .  S
C1890      C1891   1.416       .  A
C1891      C1892   1.404   1_554  A
C1891      N1898   1.429   1_554  S
C1892      C1893   1.401   1_556  A
C1892      H1897   1.084       .  S
C1893      C1894   1.416       .  A
C1894      N1895   1.428       .  S
N1895      O1899   1.261       .  A
N1895      O1900   1.262       .  A
N1898      O1902   1.262       .  A
N1898      O1901   1.262       .  A
C1903      C1904   1.409       .  A
C1903      C1908   1.405       .  A
C1903      H1910   1.084       .  S
C1904      C1905   1.405       .  A
C1905      C1906   1.397       .  A
C1905      N1912   1.428       .  S
C1906      C1907   1.413       .  A
C1906      H1911   1.083       .  S
C1907      C1908   1.415       .  A
C1908      N1909   1.429       .  S
N1909      O1913   1.262       .  A
N1909      O1914   1.262       .  A
N1912      O1916   1.262       .  A
N1912      O1915   1.262       .  A
C1917      C1918   1.408       .  A
C1917      C1922   1.403       .  A
C1917      H1924   1.084       .  S
C1918      C1919   1.405       .  A
C1919      C1920   1.390       .  A
C1919      N1926   1.429       .  S
C1920      C1921   1.412       .  A
C1920      H1925   1.083       .  S
C1921      C1922   1.413       .  A
C1922      N1923   1.428       .  S
N1923      O1927   1.262       .  A
N1923      O1928   1.262       .  A
N1926      O1930   1.262       .  A
N1926      O1929   1.262       .  A
C1931      C1932   1.416       .  A
C1931      C1936   1.392   1_655  A
C1931      H1938   1.083       .  S
C1932      C1933   1.410   1_655  A
C1933      C1934   1.407       .  A
C1933      N1940   1.428   1_455  S
C1934      C1935   1.413       .  A
C1934      H1939   1.084       .  S
C1935      C1936   1.404       .  A
C1936      N1937   1.430       .  S
N1937      O1941   1.262       .  A
N1937      O1942   1.262       .  A
N1940      O1944   1.262       .  A
N1940      O1943   1.262   1_655  A
