geometry optimzed in LAMMPS
_audit_creation_date              2020-12-01 
_audit_creation_method            'lammps2cif' 
_symmetry_space_group_name_H-M    'P1' 
_symmetry_Int_Tables_number       1 
_symmetry_cell_setting            triclinic 
loop_ 
_symmetry_equiv_pos_as_xyz 
  x,y,z 
_cell_length_a                    48.56159878 
_cell_length_b                    48.470314597397305 
_cell_length_c                    52.60701838078842 
_cell_angle_alpha                 90.00206827931879 
_cell_angle_beta                  89.97968522371404 
_cell_angle_gamma                 90.01447773521016 
loop_ 
_atom_site_label 
_atom_site_type_symbol 
_atom_site_fract_x 
_atom_site_fract_y 
_atom_site_fract_z 
_atom_site_charge 
O1          O  0.22261398  0.72384177  0.28207220    -0.73500
O2          O  0.29086310  0.73629213  0.24695640    -0.73600
O3          O  0.26059878  0.76434344  0.28133585    -0.73600
O4          O  0.25310371  0.69538255  0.24786598    -0.73700
O5          O  0.23150501  0.71594346  0.21563852    -0.73600
O6          O  0.23709539  0.78519822  0.25050856    -0.73600
O7          O  0.26823752  0.75790753  0.21599809    -0.73600
O8          O  0.19991527  0.74330548  0.24990665    -0.73600
Ni9        Ni  0.25756966  0.72923091  0.26565858     1.25400
Ni10       Ni  0.23332130  0.75132665  0.23187964     1.25400
C11         C  0.19997381  0.73143210  0.27167033     0.88600
C12         C  0.29085614  0.74935955  0.22574935     0.88600
C13         C  0.25015340  0.78613953  0.27168142     0.88600
C14         C  0.24157705  0.69426249  0.22605120     0.88800
C15         C  0.47036387  0.78790495  0.13454832     0.81100
N16         N  0.49448337  0.78662195  0.14764056    -0.77200
C17         C  0.51892086  0.79069840  0.13560412     0.83600
N18         N  0.51909854  0.79596740  0.11028221    -0.77100
C19         C  0.49527761  0.79717279  0.09689167     0.83600
N20         N  0.47100827  0.79314511  0.10918866    -0.78900
C21         C  0.51796322  0.78501519  0.86746949     0.81100
N22         N  0.49404787  0.77966085  0.85496735    -0.77200
C23         C  0.46989644  0.77713294  0.86785748     0.83600
N24         N  0.46989440  0.77986765  0.89356718    -0.77100
C25         C  0.49358294  0.78534362  0.90628421     0.83600
N26         N  0.51747702  0.78791156  0.89312564    -0.78900
C27         C  0.97026408  0.71764178  0.36497804     0.81100
N28         N  0.99450444  0.71637397  0.35208841    -0.77200
C29         C  0.01871844  0.71264274  0.36463586     0.83600
N30         N  0.01859605  0.71044549  0.39042198    -0.75500
C31         C  0.99453692  0.71208920  0.40355294     0.83600
N32         N  0.97059192  0.71577938  0.39071306    -0.78900
C33         C  0.01869218  0.72957130  0.63422108     0.81100
N34         N  0.99412727  0.73150151  0.64651078    -0.77200
C35         C  0.97008344  0.73187976  0.63331417     0.83600
N36         N  0.97077053  0.73000725  0.60756815    -0.77100
C37         C  0.99510625  0.72790735  0.59493688     0.83600
N38         N  0.01896107  0.72780793  0.60842478    -0.78900
O39         O  0.24826188  0.69575359  0.75598518    -0.73500
O40         O  0.26114365  0.76294209  0.72000622    -0.73600
O41         O  0.28907308  0.73348728  0.75539575    -0.73600
O42         O  0.22018986  0.72506120  0.72079070    -0.73700
O43         O  0.19924720  0.74878762  0.75148059    -0.73600
O44         O  0.26789510  0.75664803  0.78630589    -0.73600
O45         O  0.24033837  0.78639984  0.75091093    -0.73600
O46         O  0.22670258  0.71884895  0.78674738    -0.73600
Ni47       Ni  0.25540636  0.72848445  0.73695339     1.25400
Ni48       Ni  0.23280597  0.75350689  0.76997436     1.25400
C49         C  0.23545230  0.69612897  0.77724987     0.88600
C50         C  0.25283887  0.78583792  0.72944734     0.88600
C51         C  0.28984599  0.74637586  0.77664862     0.88600
C52         C  0.19834636  0.73564386  0.73037494     0.88800
C53         C  0.52600114  0.21750496  0.13602529     0.81100
N54         N  0.52546261  0.21395859  0.11036784    -0.77200
C55         C  0.50121078  0.21021083  0.09795260     0.83600
N56         N  0.47738035  0.20968872  0.11139840    -0.77100
C57         C  0.47756186  0.21329460  0.13692874     0.83600
N58         N  0.50185604  0.21739693  0.14913313    -0.78900
C59         C  0.47434595  0.22486151  0.86876887     0.81100
N60         N  0.47495940  0.22199588  0.89443412    -0.77200
C61         C  0.49925327  0.22303766  0.90719794     0.83600
N62         N  0.52289598  0.22748166  0.89403528    -0.77100
C63         C  0.52251544  0.23040983  0.86837853     0.83600
N64         N  0.49818463  0.22874171  0.85576855    -0.78900
C65         C  0.24513457  0.51230586  0.13442751     0.81100
N66         N  0.24266682  0.51238906  0.10875020    -0.77200
C67         C  0.24159850  0.48830476  0.09569186     0.83600
N68         N  0.24275117  0.46412449  0.10851750    -0.77100
C69         C  0.24504695  0.46374807  0.13418399     0.83600
N70         N  0.24637436  0.48796875  0.14711080    -0.78900
C71         C  0.22558317  0.46587954  0.86612726     0.81100
N72         N  0.22762445  0.46545032  0.89189407    -0.77200
C73         C  0.22607961  0.48918150  0.90550967     0.83600
N74         N  0.22267820  0.51345426  0.89317471    -0.77100
C75         C  0.22064221  0.51440340  0.86752418     0.83600
N76         N  0.22213524  0.49047895  0.85409036    -0.78900
C77         C  0.02685846  0.28082685  0.36605755     0.81100
N78         N  0.02617466  0.27994563  0.39182987    -0.77200
C79         C  0.00189413  0.27991348  0.40457095     0.83600
N80         N  0.97793739  0.28071660  0.39123945    -0.77100
C81         C  0.97822841  0.28167382  0.36540056     0.83600
N82         N  0.00276460  0.28154553  0.35293477    -0.78900
C83         C  0.97609456  0.26885049  0.63539271     0.81100
N84         N  0.97608120  0.27058278  0.60961152    -0.77200
C85         C  0.00017488  0.27176990  0.59648631     0.83600
N86         N  0.02436535  0.27084607  0.60942146    -0.77100
C87         C  0.02456111  0.26875785  0.63514292     0.83600
N88         N  0.00039224  0.26782941  0.64803273    -0.78900
C89         C  0.27411868  0.01254167  0.36778647     0.81100
N90         N  0.27258444  0.98857755  0.35459837    -0.77200
C91         C  0.27522245  0.96402657  0.36665748     0.83600
N92         N  0.27939794  0.96351774  0.39214738    -0.77100
C93         C  0.28135591  0.98737987  0.40549690     0.83600
N94         N  0.27845780  0.01183419  0.39324410    -0.78900
C95         C  0.28417364  0.96425727  0.63450318     0.81100
N96         N  0.28643318  0.96438188  0.60878197    -0.77200
C97         C  0.28739767  0.98850312  0.59577886     0.83600
N98         N  0.28601197  0.01267693  0.60865042    -0.77100
C99         C  0.28386433  0.01300800  0.63435754     0.83600
N100        N  0.28295781  0.98867264  0.64721409    -0.78900
O101        O  0.22740642  0.25457991  0.71498150    -0.73500
O102        O  0.29588471  0.24611122  0.74990698    -0.73600
O103        O  0.26707352  0.21565152  0.71612715    -0.73600
O104        O  0.25621591  0.28525843  0.74884152    -0.73700
O105        O  0.23446629  0.26420336  0.78070870    -0.73600
O106        O  0.24511923  0.19456134  0.74782416    -0.73600
O107        O  0.27405196  0.22504111  0.78171332    -0.73600
O108        O  0.20558391  0.23391132  0.74709130    -0.73600
Ni109      Ni  0.26240943  0.25115850  0.73132218     1.25400
Ni110      Ni  0.23904932  0.22864856  0.76546308     1.25400
C111        C  0.20524037  0.24571349  0.72533867     0.88600
C112        C  0.29625775  0.23420864  0.77163545     0.88600
C113        C  0.25786817  0.19359251  0.72650830     0.88600
C114        C  0.24359097  0.28624054  0.77021236     0.88800
O115        O  0.27376895  0.21980927  0.21971885    -0.73500
O116        O  0.20626753  0.23684118  0.25412794    -0.73600
O117        O  0.23782281  0.26206005  0.21876297    -0.73600
O118        O  0.24214821  0.19421288  0.25500836    -0.73700
O119        O  0.26537771  0.21498782  0.28608050    -0.73600
O120        O  0.26181073  0.28281941  0.24937262    -0.73600
O121        O  0.22991367  0.25795891  0.28471924    -0.73600
O122        O  0.29726112  0.24012017  0.25092331    -0.73600
Ni123      Ni  0.23913976  0.22744977  0.23583854     1.25400
Ni124      Ni  0.26441245  0.24970031  0.26889347     1.25400
C125        C  0.29667416  0.22746552  0.22955838     0.88600
C126        C  0.20692352  0.25041821  0.27504651     0.88600
C127        C  0.24939994  0.28357787  0.22789642     0.88600
C128        C  0.25441878  0.19331057  0.27650839     0.88800
O129        O  0.77619585  0.27951331  0.27937892    -0.73500
O130        O  0.70787025  0.26401601  0.24603490    -0.73600
O131        O  0.74062997  0.23679375  0.27926584    -0.73600
O132        O  0.74336084  0.30689768  0.24572335    -0.73700
O133        O  0.76531922  0.28734924  0.21321954    -0.73600
O134        O  0.76415648  0.21774342  0.24745554    -0.73600
O135        O  0.73052822  0.24390294  0.21421644    -0.73600
O136        O  0.79913602  0.26136847  0.24667444    -0.73600
Ni137      Ni  0.74124477  0.27252426  0.26375144     1.25400
Ni138      Ni  0.76563834  0.25194497  0.22925240     1.25400
C139        C  0.79890429  0.27273122  0.26867969     0.88600
C140        C  0.70785835  0.25132143  0.22467275     0.88600
C141        C  0.75195019  0.21567634  0.26895367     0.88600
C142        C  0.75421747  0.30853072  0.22355166     0.88800
C143        C  0.76960216  0.48762996  0.12796800     0.81100
N144        N  0.77605890  0.48702112  0.10284163    -0.77200
C145        C  0.78135626  0.51085750  0.09008175     0.83600
N146        N  0.77982025  0.53530438  0.10266678    -0.77100
C147        C  0.77338250  0.53612858  0.12776658     0.83600
N148        N  0.76853637  0.51215837  0.14030679    -0.78900
C149        C  0.78534634  0.53458751  0.86306872     0.81100
N150        N  0.79035438  0.53340404  0.88846747    -0.77200
C151        C  0.79280290  0.50872098  0.90044063     0.83600
N152        N  0.78993284  0.48513097  0.88687142    -0.77100
C153        C  0.78509896  0.48587199  0.86147776     0.83600
N154        N  0.78276174  0.51071146  0.84969883    -0.78900
C155        C  0.72802691  0.98697452  0.36304636     0.81100
N156        N  0.72406111  0.98734113  0.38854399    -0.77200
C157        C  0.72442655  0.01149668  0.40157975     0.83600
N158        N  0.72854969  0.03547097  0.38870240    -0.77100
C159        C  0.73248823  0.03534808  0.36310582     0.83600
N160        N  0.73237227  0.01096548  0.35043911    -0.78900
C161        C  0.72382013  0.03298399  0.63251656     0.81100
N162        N  0.72192383  0.00810298  0.64424952    -0.77200
C163        C  0.71946931  0.98447394  0.63054373     0.83600
N164        N  0.71867657  0.98596962  0.60480734    -0.77100
C165        C  0.72063505  0.01065981  0.59280395     0.83600
N166        N  0.72327089  0.03407092  0.60672853    -0.78900
O167        O  0.72458459  0.24415958  0.78560901    -0.73500
O168        O  0.79346168  0.24878747  0.75062107    -0.73600
O169        O  0.76605713  0.28149856  0.78355518    -0.73600
O170        O  0.75212229  0.21152055  0.75235280    -0.73700
O171        O  0.73125668  0.23278579  0.72016483    -0.73600
O172        O  0.74521221  0.30260188  0.75123878    -0.73600
O173        O  0.77275765  0.26979036  0.71817501    -0.73600
O174        O  0.70368862  0.26530076  0.75337931    -0.73600
Ni175      Ni  0.75974884  0.24574457  0.76920465     1.25400
Ni176      Ni  0.73747108  0.26838948  0.73460595     1.25400
C177        C  0.70272982  0.25390349  0.77536309     0.88600
C178        C  0.79450823  0.25989916  0.72855958     0.88600
C179        C  0.75811971  0.30363139  0.77244024     0.88600
C180        C  0.73962596  0.21062967  0.73090799     0.88800
O181        O  0.73764466  0.71444874  0.24636027    -0.73500
O182        O  0.73064326  0.78326861  0.28190552    -0.73600
O183        O  0.70027631  0.75595016  0.24698961    -0.73600
O184        O  0.76769721  0.74170995  0.28188151    -0.73700
O185        O  0.79091564  0.76393497  0.25165042    -0.73600
O186        O  0.72344523  0.77578840  0.21524895    -0.73600
O187        O  0.75266720  0.80437479  0.25020712    -0.73600
O188        O  0.76191212  0.73570035  0.21622030    -0.73600
Ni189      Ni  0.73323354  0.74805696  0.26538736     1.25400
Ni190      Ni  0.75807265  0.77069478  0.23224288     1.25400
C191        C  0.75106255  0.71379102  0.22534872     0.88600
C192        C  0.74036612  0.80523171  0.27168303     0.88600
C193        C  0.70071053  0.76796054  0.22533619     0.88600
C194        C  0.79042064  0.75076476  0.27281153     0.88800
O195        O  0.75051348  0.80594950  0.74696043    -0.73500
O196        O  0.76062331  0.73893501  0.78426922    -0.73600
O197        O  0.78940493  0.76607856  0.74793387    -0.73600
O198        O  0.72165654  0.77910839  0.78341930    -0.73700
O199        O  0.69897847  0.75583722  0.75352940    -0.73600
O200        O  0.76670751  0.74325942  0.71778492    -0.73600
O201        O  0.73799225  0.71602287  0.75411199    -0.73600
O202        O  0.72751717  0.78294198  0.71708654    -0.73600
Ni203      Ni  0.75634521  0.77333486  0.76672993     1.25400
Ni204      Ni  0.73198242  0.74869248  0.73458451     1.25400
C205        C  0.73743703  0.80550199  0.72581494     0.88600
C206        C  0.75108102  0.71631271  0.77522677     0.88600
C207        C  0.78931229  0.75267220  0.72692315     0.88600
C208        C  0.69907427  0.76963507  0.77433329     0.88800
C209        C  0.73535656  0.10778054  0.65111874    -0.27300
C210        C  0.72943949  0.10718645  0.67721195     0.06300
C211        C  0.72188346  0.08208091  0.68859305     0.25900
C212        C  0.72039267  0.05803282  0.67400277    -0.11800
C213        C  0.72614946  0.05859208  0.64777627    -0.25700
C214        C  0.73375417  0.08384065  0.63648181     0.36700
C215        C  0.73075897  0.13306246  0.69205808     0.06300
F216        F  0.71507452  0.08095457  0.71360126    -0.19500
H217        H  0.71423789  0.03903136  0.68323361     0.16100
F218        F  0.73995612  0.08553623  0.61137558    -0.23200
H219        H  0.74140896  0.12691412  0.64204257     0.17900
C220        C  0.74633868  0.13484635  0.71450892     0.25900
C221        C  0.74850762  0.15995501  0.72741470    -0.11800
C222        C  0.73543898  0.18377504  0.71805875    -0.25800
C223        C  0.71950956  0.18177348  0.69573569     0.36800
C224        C  0.71724291  0.15665121  0.68297901    -0.27400
F225        F  0.76048449  0.11268092  0.72333758    -0.19600
H226        H  0.76109220  0.16087825  0.74438632     0.16100
F227        F  0.70629609  0.20405453  0.68596850    -0.23300
H228        H  0.70502685  0.15564109  0.66577206     0.18000
C229        C  0.74488781  0.87940337  0.70348320    -0.27300
C230        C  0.72552077  0.88052940  0.68373144     0.06300
C231        C  0.71057945  0.85666561  0.67742333     0.25900
C232        C  0.71467096  0.83229059  0.69109246    -0.11800
C233        C  0.73368207  0.83130565  0.71125268    -0.25700
C234        C  0.74894278  0.85514426  0.71719260     0.36700
C235        C  0.72141529  0.90671227  0.66985254     0.06300
F236        F  0.69155660  0.85709223  0.65852262    -0.19500
H237        H  0.70265329  0.81426711  0.68608174     0.16100
F238        F  0.76808550  0.85504946  0.73598639    -0.23200
H239        H  0.75709592  0.89739600  0.70821090     0.17900
C240        C  0.71746698  0.93147464  0.68323405     0.25900
C241        C  0.71620332  0.95650554  0.67024929    -0.11800
C242        C  0.71869699  0.95740935  0.64363712    -0.25800
C243        C  0.72152636  0.93238530  0.63015270     0.36800
C244        C  0.72294662  0.90734037  0.64323826    -0.27400
F245        F  0.71493028  0.93146992  0.70893710    -0.19600
H246        H  0.71358384  0.97525352  0.68118017     0.16100
F247        F  0.72390170  0.93199026  0.60444576    -0.23300
H248        H  0.72617933  0.88848317  0.63260015     0.18000
C249        C  0.71232206  0.91408652  0.34236357    -0.27300
C250        C  0.73266002  0.90974521  0.32378982     0.06300
C251        C  0.75110040  0.93125733  0.31795913     0.25900
C252        C  0.74903714  0.95655557  0.33046102    -0.11800
C253        C  0.72905746  0.96061219  0.34933748    -0.25700
C254        C  0.71070341  0.93917571  0.35528401     0.36700
C255        C  0.73438977  0.88287419  0.31051796     0.06300
F256        F  0.77163439  0.92758525  0.30076986    -0.19500
H257        H  0.76357740  0.97277629  0.32588473     0.16100
F258        F  0.69081152  0.94270819  0.37312485    -0.23200
H259        H  0.69752077  0.89806320  0.34677113     0.17900
C260        C  0.73324986  0.85791859  0.32415941     0.25900
C261        C  0.73465616  0.83272412  0.31136162    -0.11800
C262        C  0.73770712  0.83194857  0.28484844    -0.25800
C263        C  0.73889007  0.85691608  0.27120434     0.36800
C264        C  0.73700428  0.88206652  0.28396060    -0.27400
F265        F  0.73160394  0.85786378  0.34991717    -0.19600
H266        H  0.73402682  0.81378906  0.32228764     0.16100
F267        F  0.74137931  0.85709757  0.24549666    -0.23300
H268        H  0.73735423  0.90098544  0.27300274     0.18000
C269        C  0.72388485  0.98791527  0.47038783    -0.27300
C270        C  0.71835543  0.01264803  0.48322595     0.06300
C271        C  0.71414407  0.03688881  0.46909589     0.25900
C272        C  0.71581298  0.03631894  0.44256830    -0.11800
C273        C  0.72159142  0.01157933  0.42964290    -0.25700
C274        C  0.72542167  0.98724317  0.44392105     0.36700
C275        C  0.71790747  0.01298759  0.51133729     0.06300
F276        F  0.70809598  0.06103064  0.48092512    -0.19500
H277        H  0.71255413  0.05531023  0.43214520     0.16100
F278        F  0.73153877  0.96287696  0.43252641    -0.23200
H279        H  0.72763661  0.96909843  0.48095281     0.17900
C280        C  0.70235150  0.99347799  0.52495080     0.25900
C281        C  0.70339623  0.99287892  0.55144704    -0.11800
C282        C  0.71964840  0.01189728  0.56484206    -0.25800
C283        C  0.73496991  0.03164382  0.55127251     0.36800
C284        C  0.73412705  0.03206633  0.52472860    -0.27400
F285        F  0.68589262  0.97520916  0.51263419    -0.19600
H286        H  0.69123823  0.97766327  0.56154437     0.16100
F287        F  0.75161044  0.04976765  0.56356279    -0.23300
H288        H  0.74668657  0.04690003  0.51457454     0.18000
C289        C  0.77900215  0.43376558  0.80761696    -0.27300
C290        C  0.77592895  0.40900140  0.82118789     0.06300
C291        C  0.77582361  0.40978125  0.84789174     0.25900
C292        C  0.77887428  0.43478965  0.86066591    -0.11800
C293        C  0.78186404  0.45968008  0.84719468    -0.25700
C294        C  0.78177301  0.45891484  0.82040297     0.36700
C295        C  0.77247325  0.38244887  0.80758189     0.06300
F296        F  0.77200894  0.38644036  0.86172227    -0.19500
H297        H  0.77854127  0.43459407  0.88124419     0.16100
F298        F  0.78469382  0.48226949  0.80644489    -0.23200
H299        H  0.77948218  0.43362213  0.78703973     0.17900
C300        C  0.75323467  0.37974566  0.78776347     0.25900
C301        C  0.74903155  0.35416118  0.77617704    -0.11800
C302        C  0.76373279  0.33075743  0.78422055    -0.25800
C303        C  0.78350023  0.33364801  0.80360870     0.36800
C304        C  0.78786484  0.35928578  0.81501243    -0.27400
F305        F  0.73768728  0.40154131  0.78025703    -0.19600
H306        H  0.73371917  0.35255877  0.76128774     0.16100
F307        F  0.79879445  0.31182634  0.81148734    -0.23300
H308        H  0.80326635  0.36102581  0.82981132     0.18000
C309        C  0.77880834  0.58999756  0.81232374    -0.27300
C310        C  0.77216807  0.61324228  0.82700087     0.06300
C311        C  0.77026315  0.61057304  0.85352884     0.25900
C312        C  0.77504630  0.58507313  0.86508789    -0.11800
C313        C  0.78148533  0.56165776  0.85043349    -0.25700
C314        C  0.78342842  0.56443786  0.82382603     0.36700
C315        C  0.76643846  0.63988950  0.81434127     0.06300
F316        F  0.76275525  0.63235433  0.86819600    -0.19500
H317        H  0.77304647  0.58356321  0.88554289     0.16100
F318        F  0.79007627  0.54264193  0.80884872    -0.23200
H319        H  0.78048787  0.59168793  0.79184782     0.17900
C320        C  0.77993814  0.66423031  0.82182817     0.25900
C321        C  0.77445834  0.68909208  0.80935807    -0.11800
C322        C  0.75563486  0.69011026  0.78907211    -0.25800
C323        C  0.74200577  0.66568357  0.78175417     0.36800
C324        C  0.74746226  0.64090225  0.79427776    -0.27400
F325        F  0.79910911  0.66380695  0.84059531    -0.19600
H326        H  0.78542916  0.70745993  0.81527788     0.16100
F327        F  0.72330577  0.66561685  0.76258069    -0.23300
H328        H  0.73670587  0.62239426  0.78836246     0.18000
C329        C  0.76447453  0.61248698  0.14207693    -0.27300
C330        C  0.76507596  0.61250863  0.16875767     0.06300
C331        C  0.76922705  0.58752678  0.18171447     0.25900
C332        C  0.77219597  0.56294992  0.16820165    -0.11800
C333        C  0.77128202  0.56273398  0.14148988    -0.25700
C334        C  0.76763163  0.58790398  0.12848703     0.36700
C335        C  0.76121550  0.63852394  0.18303360     0.06300
F336        F  0.77088498  0.58694252  0.20746587    -0.19500
H337        H  0.77532932  0.54402240  0.17875580     0.16100
F338        F  0.76626227  0.58880674  0.10274168    -0.23200
H339        H  0.76105223  0.63151080  0.13174022     0.17900
C340        C  0.77697849  0.66197602  0.17722056     0.25900
C341        C  0.77349777  0.68623300  0.19111862    -0.11800
C342        C  0.75430072  0.68764815  0.21112196    -0.25800
C343        C  0.73835185  0.66418465  0.21680037     0.36800
C344        C  0.74180848  0.63991548  0.20280312    -0.27400
F345        F  0.79628196  0.66124103  0.15855850    -0.19600
H346        H  0.78613966  0.70389661  0.18631711     0.16100
F347        F  0.71913901  0.66471674  0.23553612    -0.23300
H348        H  0.72913973  0.62217073  0.20729501     0.18000
C349        C  0.81251238  0.52765443  0.96792406    -0.27300
C350        C  0.80044416  0.50596839  0.98174934     0.06300
C351        C  0.78738804  0.48444647  0.96844402     0.25900
C352        C  0.78594662  0.48505391  0.94195307    -0.11800
C353        C  0.79689470  0.50735886  0.92822547    -0.25700
C354        C  0.81064547  0.52849417  0.94142251     0.36700
C355        C  0.79864712  0.50762241  0.00985239     0.06300
F356        F  0.77433108  0.46378737  0.98102731    -0.19500
H357        H  0.77506601  0.46863314  0.93224484     0.16100
F358        F  0.82216741  0.55001144  0.92877866    -0.23200
H359        H  0.82280217  0.54436882  0.97775288     0.17900
C360        C  0.80408390  0.48467093  0.02544485     0.25900
C361        C  0.79869882  0.48592673  0.05155337    -0.11800
C362        C  0.78839189  0.51022187  0.06266638    -0.25800
C363        C  0.78448842  0.53361496  0.04719191     0.36800
C364        C  0.78943570  0.53218105  0.02111724    -0.27400
F365        F  0.81460730  0.46108262  0.01548277    -0.19600
H366        H  0.80256695  0.46782123  0.06307984     0.16100
F367        F  0.77467618  0.55760385  0.05689905    -0.23300
H368        H  0.78500956  0.55011065  0.00952346     0.18000
C369        C  0.76114359  0.36154619  0.17078167    -0.27300
C370        C  0.75399916  0.38602612  0.18336326     0.06300
C371        C  0.74569165  0.38474441  0.20896713     0.25900
C372        C  0.74564909  0.35951386  0.22189714    -0.11800
C373        C  0.75373697  0.33508815  0.20953891    -0.25700
C374        C  0.76100840  0.33633826  0.18360825     0.36700
C375        C  0.75641507  0.41272213  0.16977650     0.06300
F376        F  0.73737624  0.40781997  0.22141719    -0.19500
H377        H  0.73947888  0.35917069  0.24167928     0.16100
F378        F  0.76798623  0.31326131  0.17048904    -0.23200
H379        H  0.76748229  0.36202119  0.15103993     0.17900
C380        C  0.77143239  0.43467650  0.18043546     0.25900
C381        C  0.77510364  0.45912924  0.16683828    -0.11800
C382        C  0.76453177  0.46192220  0.14216000    -0.25800
C383        C  0.74937278  0.44012053  0.13147255     0.36800
C384        C  0.74529001  0.41576603  0.14525469    -0.27400
F385        F  0.78373883  0.43203354  0.20346735    -0.19600
H386        H  0.78703123  0.47563253  0.17530704     0.16100
F387        F  0.73809309  0.44255635  0.10797061    -0.23300
H388        H  0.73356296  0.39916219  0.13672569     0.18000
C389        C  0.76037853  0.13938272  0.28444408    -0.27300
C390        C  0.74684241  0.13764962  0.30799921     0.06300
C391        C  0.73523076  0.16165674  0.31849195     0.25900
C392        C  0.73725519  0.18679440  0.30575940    -0.11800
C393        C  0.75065188  0.18866035  0.28214539    -0.25700
C394        C  0.76221712  0.16456806  0.27152527     0.36700
C395        C  0.74463172  0.11094473  0.32163681     0.06300
F396        F  0.72119418  0.16073251  0.34079517    -0.19500
H397        H  0.72799632  0.20482275  0.31440108     0.16100
F398        F  0.77522924  0.16517484  0.24868869    -0.23200
H399        H  0.76973669  0.12123698  0.27610164     0.17900
C400        C  0.73581263  0.08689157  0.30908257     0.25900
C401        C  0.73222943  0.06237097  0.32266046    -0.11800
C402        C  0.73709757  0.06137078  0.34900689    -0.25800
C403        C  0.74641687  0.08532258  0.36143363     0.36800
C404        C  0.75036931  0.10969530  0.34778371    -0.27400
F405        F  0.72962537  0.08728015  0.28392094    -0.19600
H406        H  0.72499465  0.04428208  0.31258424     0.16100
F407        F  0.75206429  0.08524016  0.38669914    -0.23300
H408        H  0.75783080  0.12776188  0.35774955     0.18000
C409        C  0.27064384  0.08867217  0.64840117    -0.27300
C410        C  0.27531110  0.08984277  0.67466464     0.06300
C411        C  0.28324244  0.06574881  0.68760130     0.25900
C412        C  0.28616034  0.04087858  0.67439141    -0.11800
C413        C  0.28137015  0.03962012  0.64805408    -0.25700
C414        C  0.27370260  0.06395071  0.63514428     0.36700
C415        C  0.27137837  0.11620818  0.68834908     0.06300
F416        F  0.28862379  0.06637294  0.71291238    -0.19500
H417        H  0.29232786  0.02261798  0.68479681     0.16100
F418        F  0.26836579  0.06390911  0.60982926    -0.23200
H419        H  0.26413468  0.10692978  0.63815399     0.17900
C420        C  0.28400862  0.14050354  0.67961812     0.25900
C421        C  0.27947261  0.16546611  0.69213920    -0.11800
C422        C  0.26224955  0.16678018  0.71360373    -0.25800
C423        C  0.24953626  0.14238319  0.72229331     0.36800
C424        C  0.25415500  0.11738190  0.70974513    -0.27400
F425        F  0.30109865  0.14003490  0.65919225    -0.19600
H426        H  0.28963547  0.18379845  0.68502259     0.16100
F427        F  0.23229118  0.14262885  0.74260142    -0.23300
H428        H  0.24385281  0.09895011  0.71647793     0.18000
C429        C  0.27333111  0.06726518  0.31667355    -0.27300
C430        C  0.26321990  0.09007013  0.33014155     0.06300
C431        C  0.25619653  0.08716316  0.35590299     0.25900
C432        C  0.25997788  0.06189481  0.36809792    -0.11800
C433        C  0.27037468  0.03909925  0.35468662    -0.25700
C434        C  0.27683423  0.04193964  0.32874497     0.36700
C435        C  0.26021212  0.11673220  0.31703294     0.06300
F436        F  0.24513455  0.10854515  0.36907985    -0.19500
H437        H  0.25437435  0.06005061  0.38796059     0.16100
F438        F  0.28725561  0.02053729  0.31517366    -0.23200
H439        H  0.27892111  0.06921390  0.29681049     0.17900
C440        C  0.27244419  0.14072043  0.32684602     0.25900
C441        C  0.27027061  0.16558778  0.31367063    -0.11800
C442        C  0.25606399  0.16690669  0.29041806    -0.25800
C443        C  0.24388190  0.14273410  0.28062982     0.36800
C444        C  0.24598432  0.11795186  0.29389747    -0.27400
F445        F  0.28730711  0.13990884  0.34868627    -0.19600
H446        H  0.28005435  0.18374557  0.32156974     0.16100
F447        F  0.23007406  0.14282393  0.25819901    -0.23300
H448        H  0.23650232  0.09958711  0.28606548     0.18000
C449        C  0.29963642  0.00883924  0.47251916    -0.27300
C450        C  0.29035678  0.98601499  0.48646656     0.06300
C451        C  0.27917145  0.96321734  0.47364025     0.25900
C452        C  0.27693033  0.96353706  0.44721166    -0.11800
C453        C  0.28554444  0.98667851  0.43322718    -0.25700
C454        C  0.29736147  0.00922027  0.44609786     0.36700
C455        C  0.29072695  0.98693961  0.51443338     0.06300
F456        F  0.26920855  0.94123872  0.48673541    -0.19500
H457        H  0.26761115  0.94601086  0.43776605     0.16100
F458        F  0.30687163  0.03154503  0.43321654    -0.23200
H459        H  0.30845254  0.02649222  0.48218344     0.17900
C460        C  0.30352933  0.96607474  0.52867738     0.25900
C461        C  0.30248127  0.96675964  0.55519336    -0.11800
C462        C  0.28890953  0.98837492  0.56781897    -0.25800
C463        C  0.27639310  0.00941493  0.55346507     0.36800
C464        C  0.27739510  0.00865237  0.52700168    -0.27400
F465        F  0.31728913  0.94528329  0.51694893    -0.19600
H466        H  0.31244664  0.95047678  0.56588086     0.16100
F467        F  0.26218489  0.03008887  0.56488945    -0.23300
H468        H  0.26716332  0.02471785  0.51623803     0.18000
C469        C  0.07830915  0.24597099  0.68249280    -0.27300
C470        C  0.10144688  0.26091773  0.67436551     0.06300
C471        C  0.09904155  0.27873759  0.65336970     0.25900
C472        C  0.07395037  0.28117854  0.64060630    -0.11800
C473        C  0.05081262  0.26634949  0.64888620    -0.25700
C474        C  0.05313444  0.24878617  0.67003643     0.36700
C475        C  0.12808286  0.25728520  0.68752200     0.06300
F476        F  0.12078433  0.29414479  0.64549895    -0.19500
H477        H  0.07248196  0.29495122  0.62444601     0.16100
F478        F  0.03137451  0.23351139  0.67807660    -0.23200
H479        H  0.07985013  0.23169553  0.69826711     0.17900
C480        C  0.12967054  0.25826874  0.71420751     0.25900
C481        C  0.15483147  0.25409748  0.72639341    -0.11800
C482        C  0.17882847  0.24938625  0.71219380    -0.25800
C483        C  0.17730608  0.24844561  0.68554636     0.36800
C484        C  0.15206626  0.25216499  0.67336730    -0.27400
F485        F  0.10705495  0.26391163  0.72846750    -0.19600
H486        H  0.15567597  0.25512908  0.74695154     0.16100
F487        F  0.20003122  0.24314042  0.67132770    -0.23300
H488        H  0.15118683  0.25069231  0.65284074     0.18000
C489        C  0.92192313  0.27819450  0.68648252    -0.27300
C490        C  0.89950020  0.26368117  0.67611279     0.06300
C491        C  0.90277969  0.25060089  0.65237479     0.25900
C492        C  0.92760187  0.25276395  0.63910718    -0.11800
C493        C  0.94992335  0.26719668  0.64953275    -0.25700
C494        C  0.94703796  0.27960757  0.67355131     0.36700
C495        C  0.87266771  0.26278712  0.68975319     0.06300
F496        F  0.88223419  0.23515302  0.64220886    -0.19500
H497        H  0.92957987  0.24259800  0.62085810     0.16100
F498        F  0.96818039  0.29384920  0.68418547    -0.23200
H499        H  0.91990263  0.28889453  0.70445041     0.17900
C500        C  0.87134566  0.25797252  0.71612760     0.25900
C501        C  0.84590683  0.25724444  0.72855585    -0.11800
C502        C  0.82124487  0.26118610  0.71504008    -0.25800
C503        C  0.82255686  0.26591439  0.68867542     0.36800
C504        C  0.84799944  0.26694551  0.67630608    -0.27400
F505        F  0.89453198  0.25327394  0.72986767    -0.19600
H506        H  0.84554689  0.25351480  0.74885061     0.16100
F507        F  0.79929818  0.26898659  0.67465942    -0.23300
H508        H  0.84837257  0.27118203  0.65610396     0.18000
C509        C  0.08135540  0.28411552  0.31422904    -0.27300
C510        C  0.10459220  0.27410165  0.32714565     0.06300
C511        C  0.10245231  0.26787209  0.35315848     0.25900
C512        C  0.07729189  0.27076158  0.36570916    -0.11800
C513        C  0.05369140  0.27978775  0.35262214    -0.25700
C514        C  0.05611442  0.28696118  0.32675833     0.36700
C515        C  0.13065814  0.26911792  0.31325068     0.06300
F516        F  0.12436567  0.25779020  0.36620813    -0.19500
H517        H  0.07617420  0.26510399  0.38560036     0.16100
F518        F  0.03422903  0.29679071  0.31352497    -0.23200
H519        H  0.08273527  0.28957327  0.29429887     0.17900
C520        C  0.13084381  0.25334069  0.29083282     0.25900
C521        C  0.15563988  0.24758830  0.27846618    -0.11800
C522        C  0.18078640  0.25736908  0.28817775    -0.25800
C523        C  0.18049640  0.27353145  0.31049008     0.36800
C524        C  0.15564540  0.27930385  0.32280202    -0.27400
F525        F  0.10714013  0.24263874  0.28135501    -0.19600
H526        H  0.15512139  0.23509092  0.26140709     0.16100
F527        F  0.20412143  0.28376057  0.32055617    -0.23300
H528        H  0.15591106  0.29176127  0.33989825     0.18000
C529        C  0.90366879  0.29469505  0.34731527    -0.27300
C530        C  0.90208573  0.28224906  0.32320823     0.06300
C531        C  0.92604800  0.27026195  0.31288192     0.25900
C532        C  0.95078250  0.27061058  0.32651210    -0.11800
C533        C  0.95209283  0.28235700  0.35089456    -0.25700
C534        C  0.92824006  0.29449226  0.36117319     0.36700
C535        C  0.87534460  0.28119545  0.30932992     0.06300
F536        F  0.92539252  0.25725283  0.29004196    -0.19500
H537        H  0.96879932  0.26096066  0.31823335     0.16100
F538        F  0.92873484  0.30665443  0.38441180    -0.23200
H539        H  0.88579383  0.30468136  0.35549515     0.17900
C540        C  0.85084218  0.27394374  0.32205764     0.25900
C541        C  0.82597582  0.27225237  0.30878199    -0.11800
C542        C  0.82503941  0.27700309  0.28248937    -0.25800
C543        C  0.84934590  0.28445537  0.26971269     0.36800
C544        C  0.87415245  0.28687651  0.28310813    -0.27400
F545        F  0.85105688  0.26725695  0.34711347    -0.19600
H546        H  0.80754077  0.26612728  0.31893510     0.16100
F547        F  0.84904204  0.28975028  0.24437888    -0.23300
H548        H  0.89249561  0.29314619  0.27291669     0.18000
C549        C  0.02368530  0.28690592  0.47351681    -0.27300
C550        C  0.00112868  0.27528035  0.48634561     0.06300
C551        C  0.97878596  0.26520158  0.47202653     0.25900
C552        C  0.97899977  0.26709803  0.44549679    -0.11800
C553        C  0.00166778  0.27855219  0.43268697    -0.25700
C554        C  0.02416411  0.28829441  0.44700747     0.36700
C555        C  0.00090630  0.27419976  0.51457253     0.06300
F556        F  0.95703217  0.25288682  0.48360776    -0.19500
H557        H  0.96160816  0.25908335  0.43493404     0.16100
F558        F  0.04639794  0.29981745  0.43550849    -0.23200
H559        H  0.04089400  0.29531943  0.48406329     0.17900
C560        C  0.02421006  0.26535384  0.52822693     0.25900
C561        C  0.02387040  0.26496924  0.55477813    -0.11800
C562        C  0.00023585  0.27301653  0.56832914    -0.25800
C563        C  0.97691267  0.28184043  0.55465868     0.36800
C564        C  0.97739978  0.28256986  0.52810136    -0.27400
F565        F  0.04711619  0.25639028  0.51594608    -0.19600
H566        H  0.04205007  0.25784269  0.56472066     0.16100
F567        F  0.95378059  0.29032817  0.56684945    -0.23300
H568        H  0.95942181  0.29006836  0.51808554     0.18000
C569        C  0.25279835  0.36078470  0.79053711    -0.27300
C570        C  0.23299847  0.36317405  0.80989854     0.06300
C571        C  0.21584286  0.34047558  0.81517234     0.25900
C572        C  0.21938887  0.31562201  0.80213220    -0.11800
C573        C  0.23958054  0.31305064  0.78314102    -0.25700
C574        C  0.25596813  0.33611170  0.77711603     0.36700
C575        C  0.23053437  0.38936514  0.82437432     0.06300
F576        F  0.19523559  0.34244105  0.83251562    -0.19500
H577        H  0.20608657  0.29839793  0.80677189     0.16100
F578        F  0.27559724  0.33469416  0.75878565    -0.23200
H579        H  0.26623335  0.37795996  0.78607181     0.17900
C580        C  0.22903972  0.38941375  0.85108642     0.25900
C581        C  0.22722665  0.41428935  0.86438821    -0.11800
C582        C  0.22725596  0.43971931  0.85147675    -0.25800
C583        C  0.22918771  0.43962378  0.82472783     0.36800
C584        C  0.23067926  0.41470545  0.81143674    -0.27400
F585        F  0.23031679  0.36550157  0.86446809    -0.19600
H586        H  0.22603368  0.41354207  0.88493353     0.16100
F587        F  0.23007831  0.46349537  0.81127585    -0.23300
H588        H  0.23193820  0.41522742  0.79088395     0.18000
C589        C  0.23246356  0.33717487  0.17789705    -0.27300
C590        C  0.24873482  0.35934343  0.18604406     0.06300
C591        C  0.26537367  0.35643464  0.20766226     0.25900
C592        C  0.26536803  0.33176245  0.22119469    -0.11800
C593        C  0.24885137  0.30954693  0.21334266    -0.25700
C594        C  0.23243273  0.31241281  0.19139653     0.36700
C595        C  0.24755479  0.38585676  0.17256591     0.06300
F596        F  0.28188468  0.37738393  0.21548781    -0.19500
H597        H  0.27846741  0.33004586  0.23777508     0.16100
F598        F  0.21600700  0.29158687  0.18315055    -0.23200
H599        H  0.21935864  0.33926178  0.16134650     0.17900
C600        C  0.25299783  0.38742022  0.14642662     0.25900
C601        C  0.25215363  0.41286293  0.13411108    -0.11800
C602        C  0.24583661  0.43708883  0.14765989    -0.25800
C603        C  0.23997928  0.43530795  0.17381143     0.36800
C604        C  0.24089128  0.40986153  0.18607588    -0.27400
F605        F  0.25977348  0.36449459  0.13297210    -0.19600
H606        H  0.25676470  0.41359544  0.11397884     0.16100
F607        F  0.23278262  0.45792407  0.18749265    -0.23300
H608        H  0.23615160  0.40881478  0.20617933     0.18000
C609        C  0.22173566  0.51051107  0.97456902    -0.27300
C610        C  0.23538506  0.48864690  0.98653914     0.06300
C611        C  0.24575716  0.46677630  0.97187855     0.25900
C612        C  0.24240640  0.46687932  0.94552245    -0.11800
C613        C  0.22880326  0.48884727  0.93343994    -0.25700
C614        C  0.21839988  0.51069501  0.94828189     0.36700
C615        C  0.23767861  0.48838337  0.01441933     0.06300
F616        F  0.25955184  0.44562991  0.98301659    -0.19500
H617        H  0.25082556  0.44996277  0.93454134     0.16100
F618        F  0.20435981  0.53192790  0.93758210    -0.23200
H619        H  0.21319044  0.52726299  0.98569675     0.17900
C620        C  0.24900152  0.51096878  0.02747606     0.25900
C621        C  0.24989113  0.51095327  0.05396339    -0.11800
C622        C  0.23970523  0.48836029  0.06777677    -0.25800
C623        C  0.22831878  0.46577369  0.05462514     0.36800
C624        C  0.22735622  0.46587970  0.02815440    -0.27400
F625        F  0.25963955  0.53277609  0.01459195    -0.19600
H626        H  0.25898511  0.52844480  0.06365340     0.16100
F627        F  0.21746538  0.44390869  0.06727265    -0.23300
H628        H  0.21808197  0.44856363  0.01833419     0.18000
C629        C  0.40083379  0.24050428  0.85057856    -0.27300
C630        C  0.39806229  0.22550293  0.82787322     0.06300
C631        C  0.42046923  0.20977867  0.81902867     0.25900
C632        C  0.44530214  0.20964963  0.83243813    -0.11800
C633        C  0.44793646  0.22458626  0.85513490    -0.25700
C634        C  0.42543655  0.23985034  0.86427036     0.36700
C635        C  0.37201031  0.22689918  0.81331120     0.06300
F636        F  0.41819956  0.19418721  0.79769460    -0.19500
H637        H  0.46241805  0.19759763  0.82527245     0.16100
F638        F  0.42761779  0.25505352  0.88584975    -0.23200
H639        H  0.38405946  0.25317824  0.85750096     0.17900
C640        C  0.34648845  0.22344627  0.82553051     0.25900
C641        C  0.32204964  0.22559082  0.81175601    -0.11800
C642        C  0.32249642  0.23131398  0.78558049    -0.25800
C643        C  0.34806005  0.23454037  0.77328315     0.36800
C644        C  0.37252560  0.23238793  0.78709989    -0.27400
F645        F  0.34514656  0.21764347  0.85074289    -0.19600
H646        H  0.30269061  0.22303032  0.82172072     0.16100
F647        F  0.34952013  0.23954599  0.74792779    -0.23300
H648        H  0.39194116  0.23543760  0.77734769     0.18000
C649        C  0.59474594  0.25403518  0.85206386    -0.27300
C650        C  0.59813510  0.24309901  0.82753843     0.06300
C651        C  0.57632976  0.22822334  0.81646525     0.25900
C652        C  0.55160039  0.22464151  0.82966736    -0.11800
C653        C  0.54837860  0.23525977  0.85431588    -0.25700
C654        C  0.57017044  0.25013699  0.86540103     0.36700
C655        C  0.62479703  0.24648321  0.81413815     0.06300
F656        F  0.57929484  0.21618428  0.79333374    -0.19500
H657        H  0.53520985  0.21285794  0.82087841     0.16100
F658        F  0.56756434  0.26141639  0.88889909    -0.23200
H659        H  0.61119502  0.26570113  0.86089058     0.17900
C660        C  0.62598220  0.25611670  0.78894403     0.25900
C661        C  0.65134583  0.25864996  0.77654128    -0.11800
C662        C  0.67603561  0.25175681  0.78900102    -0.25800
C663        C  0.67477938  0.24262872  0.81443480     0.36800
C664        C  0.64942502  0.24007087  0.82676076    -0.27400
F665        F  0.60268904  0.26362751  0.77648137    -0.19600
H666        H  0.65160147  0.26594055  0.75708092     0.16100
F667        F  0.69797338  0.23621449  0.82755251    -0.23300
H668        H  0.64899957  0.23269054  0.84619934     0.18000
C669        C  0.42118603  0.23453354  0.18239707    -0.27300
C670        C  0.40048737  0.21514872  0.17686910     0.06300
C671        C  0.40545948  0.19508649  0.15806670     0.25900
C672        C  0.43060712  0.19462012  0.14511120    -0.11800
C673        C  0.45136280  0.21373102  0.15101797    -0.25700
C674        C  0.44648337  0.23371910  0.16979042     0.36700
C675        C  0.37375954  0.21642449  0.19052950     0.06300
F676        F  0.38628695  0.17559108  0.15258066    -0.19500
H677        H  0.43404713  0.17905162  0.13068313     0.16100
F678        F  0.46573477  0.25315572  0.17522035    -0.23200
H679        H  0.41761284  0.25064792  0.19626617     0.17900
C680        C  0.37295225  0.21989122  0.21706839     0.25900
C681        C  0.34779705  0.22294834  0.22959531    -0.11800
C682        C  0.32288519  0.22226649  0.21604666    -0.25800
C683        C  0.32360150  0.21799733  0.18957788     0.36800
C684        C  0.34883694  0.21527159  0.17699046    -0.27400
F685        F  0.39649738  0.22017227  0.23096951    -0.19600
H686        H  0.34784430  0.22593477  0.24999868     0.16100
F687        F  0.30006754  0.21763938  0.17566342    -0.23300
H688        H  0.34890659  0.21306313  0.15650863     0.18000
C689        C  0.57940685  0.22804111  0.18819332    -0.27300
C690        C  0.60370112  0.23132886  0.17402566     0.06300
C691        C  0.60226848  0.22986739  0.14735018     0.25900
C692        C  0.57705918  0.22522456  0.13524534    -0.11800
C693        C  0.55262895  0.22212610  0.14937485    -0.25700
C694        C  0.55413177  0.22367221  0.17612715     0.36700
C695        C  0.63034705  0.23627190  0.18718242     0.06300
F696        F  0.62511223  0.23365145  0.13288170    -0.19500
H697        H  0.57671833  0.22436171  0.11468300     0.16100
F698        F  0.53133132  0.22081825  0.19082190    -0.23200
H699        H  0.58000481  0.22861503  0.20876207     0.17900
C700        C  0.63245225  0.25592684  0.20678043     0.25900
C701        C  0.65759236  0.26036438  0.21903763    -0.11800
C702        C  0.68127145  0.24560565  0.21187094    -0.25800
C703        C  0.67916405  0.22587849  0.19231165     0.36800
C704        C  0.65391371  0.22120991  0.18025677    -0.27400
F705        F  0.61041408  0.27147460  0.21362269    -0.19600
H706        H  0.65861164  0.27582687  0.23386799     0.16100
F707        F  0.70132775  0.21074689  0.18504976    -0.23300
H708        H  0.65273017  0.20556956  0.16560125     0.18000
C709        C  0.52309436  0.22311772  0.97595258    -0.27300
C710        C  0.50071370  0.21055834  0.98822414     0.06300
C711        C  0.47801748  0.20186854  0.97369157     0.25900
C712        C  0.47766336  0.20607796  0.94742336    -0.11800
C713        C  0.49997643  0.21885687  0.93509311    -0.25700
C714        C  0.52284451  0.22722153  0.94968120     0.36700
C715        C  0.50040155  0.20843319  0.01629816     0.06300
F716        F  0.45626599  0.18910400  0.98486810    -0.19500
H717        H  0.45993432  0.19911928  0.93671473     0.16100
F718        F  0.54466408  0.24014625  0.93881124    -0.23200
H719        H  0.54052464  0.23049225  0.98684572     0.17900
C720        C  0.52313005  0.19795438  0.02978842     0.25900
C721        C  0.52319478  0.19821482  0.05638586    -0.11800
C722        C  0.50051168  0.20862006  0.06991524    -0.25800
C723        C  0.47758618  0.21856897  0.05634408     0.36800
C724        C  0.47766745  0.21853928  0.02984725    -0.27400
F725        F  0.54518659  0.18739009  0.01726756    -0.19600
H726        H  0.54098879  0.19028957  0.06641478     0.16100
F727        F  0.45558888  0.22963444  0.06857895    -0.23300
H728        H  0.46021961  0.22727045  0.01987010     0.18000
C729        C  0.25307697  0.86161393  0.71076750    -0.27300
C730        C  0.26753388  0.86099273  0.68765817     0.06300
C731        C  0.27718225  0.83551861  0.67843672     0.25900
C732        C  0.27220087  0.81125864  0.69205576    -0.11800
C733        C  0.25775234  0.81184325  0.71524612    -0.25700
C734        C  0.24823005  0.83741674  0.72448127     0.36700
C735        C  0.27272335  0.88710077  0.67370726     0.06300
F736        F  0.29216038  0.83411072  0.65668245    -0.19500
H737        H  0.27995565  0.79198669  0.68448255     0.16100
F738        F  0.23418892  0.83921521  0.74672791    -0.23200
H739        H  0.24532120  0.88096465  0.71818424     0.17900
C740        C  0.26721617  0.88937139  0.64754704     0.25900
C741        C  0.27166437  0.91432307  0.63492733    -0.11800
C742        C  0.28111389  0.93770630  0.64814942    -0.25800
C743        C  0.28654678  0.93545568  0.67434190     0.36800
C744        C  0.28249508  0.91035386  0.68688222    -0.27400
F745        F  0.25640232  0.86788206  0.63434819    -0.19600
H746        H  0.26687318  0.91551323  0.61485297     0.16100
F747        F  0.29600433  0.95734940  0.68785326    -0.23300
H748        H  0.28701726  0.90906394  0.70700633     0.18000
C749        C  0.24351033  0.62214892  0.79865436    -0.27300
C750        C  0.22134485  0.61913430  0.81548889     0.06300
C751        C  0.20405777  0.64183053  0.82026363     0.25900
C752        C  0.20884915  0.66703045  0.80801458    -0.11800
C753        C  0.23084842  0.66986418  0.79082440    -0.25700
C754        C  0.24827534  0.64716773  0.78641242     0.36700
C755        C  0.21754583  0.59250493  0.82869338     0.06300
F756        F  0.18230106  0.63945973  0.83632974    -0.19500
H757        H  0.19511061  0.68418510  0.81165692     0.16100
F758        F  0.27039244  0.64927332  0.77074447    -0.23200
H759        H  0.25749307  0.60511977  0.79527762     0.17900
C760        C  0.21707934  0.56765553  0.81493930     0.25900
C761        C  0.21728433  0.54238866  0.82767337    -0.11800
C762        C  0.21801176  0.54137303  0.85437247    -0.25800
C763        C  0.21728383  0.56644027  0.86810509     0.36800
C764        C  0.21704035  0.59165882  0.85529256    -0.27400
F765        F  0.21685567  0.56784836  0.78913699    -0.19600
H766        H  0.21750190  0.52361859  0.81651337     0.16100
F767        F  0.21767302  0.56687314  0.89389377    -0.23300
H768        H  0.21763034  0.61060709  0.86620676     0.18000
C769        C  0.07034364  0.72624073  0.68854354    -0.27300
C770        C  0.09532859  0.72999173  0.67563929     0.06300
C771        C  0.09510129  0.73324996  0.64911839     0.25900
C772        C  0.07017761  0.73298780  0.63582181    -0.11800
C773        C  0.04498474  0.72944384  0.64868989    -0.25700
C774        C  0.04540102  0.72590942  0.67531238     0.36700
C775        C  0.12147599  0.73088977  0.69002020     0.06300
F776        F  0.11891942  0.73747667  0.63616213    -0.19500
H777        H  0.07064959  0.73590938  0.61542386     0.16100
F778        F  0.02184907  0.72179229  0.68867585    -0.23200
H779        H  0.07018701  0.72338961  0.70896642     0.17900
C780        C  0.12492541  0.74961962  0.71013877     0.25900
C781        C  0.14982288  0.75072451  0.72335686    -0.11800
C782        C  0.17177090  0.73320189  0.71678579    -0.25800
C783        C  0.16807412  0.71403988  0.69693069     0.36800
C784        C  0.14314923  0.71303395  0.68365306    -0.27400
F785        F  0.10449593  0.76744520  0.71650176    -0.19600
H786        H  0.15206661  0.76573059  0.73846953     0.16100
F787        F  0.18833272  0.69605137  0.69050136    -0.23300
H788        H  0.14066668  0.69815984  0.66845678     0.18000
C789        C  0.89501115  0.74726125  0.64815611    -0.27300
C790        C  0.89280627  0.73797355  0.67334320     0.06300
C791        C  0.91601224  0.72622664  0.68512055     0.25900
C792        C  0.94105747  0.72443558  0.67205487    -0.11800
C793        C  0.94338771  0.73396885  0.64690386    -0.25700
C794        C  0.91999947  0.74536160  0.63502079     0.36700
C795        C  0.86641391  0.74114344  0.68728351     0.06300
F796        F  0.91431415  0.71599730  0.70909043    -0.19500
H797        H  0.95858762  0.71523145  0.68154866     0.16100
F798        F  0.92142779  0.75549488  0.61100308    -0.23200
H799        H  0.87742769  0.75653965  0.63880065     0.17900
C800        C  0.86547597  0.75503888  0.71070746     0.25900
C801        C  0.84043767  0.75849557  0.72344596    -0.11800
C802        C  0.81571614  0.74827379  0.71312533    -0.25800
C803        C  0.81671530  0.73438609  0.68956144     0.36800
C804        C  0.84182310  0.73099793  0.67681569    -0.27400
F805        F  0.88866830  0.76607437  0.72091040    -0.19600
H806        H  0.84044531  0.76946376  0.74137814     0.16100
F807        F  0.79352014  0.72419134  0.67865749    -0.23300
H808        H  0.84210639  0.72030952  0.65873414     0.18000
C809        C  0.91697023  0.72706930  0.31254743    -0.27300
C810        C  0.89283063  0.73166586  0.32664627     0.06300
C811        C  0.89424527  0.73099449  0.35333635     0.25900
C812        C  0.91936554  0.72619054  0.36551651    -0.11800
C813        C  0.94371196  0.72205112  0.35145102    -0.25700
C814        C  0.94215768  0.72245542  0.32469068     0.36700
C815        C  0.86640188  0.73711470  0.31332700     0.06300
F816        F  0.87152728  0.73577351  0.36772713    -0.19500
H817        H  0.91970912  0.72609072  0.38609397     0.16100
F818        F  0.96482910  0.71834371  0.31008902    -0.23200
H819        H  0.91631638  0.72689622  0.29197350     0.17900
C820        C  0.86508412  0.75612968  0.29315061     0.25900
C821        C  0.84040167  0.76034632  0.28006588    -0.11800
C822        C  0.81637587  0.74605752  0.28702236    -0.25800
C823        C  0.81753414  0.72752169  0.30766792     0.36800
C824        C  0.84235818  0.72298363  0.32046211    -0.27400
F825        F  0.88754386  0.77109930  0.28637745    -0.19600
H826        H  0.84007757  0.77506997  0.26459110     0.16100
F827        F  0.79487466  0.71336765  0.31532959    -0.23300
H828        H  0.84286260  0.70803289  0.33574562     0.18000
C829        C  0.01331481  0.69912247  0.47262586    -0.27300
C830        C  0.99434098  0.71625280  0.48521841     0.06300
C831        C  0.97540509  0.73156296  0.47074893     0.25900
C832        C  0.97530011  0.72949313  0.44429741    -0.11800
C833        C  0.99439299  0.71260714  0.43164445    -0.25700
C834        C  0.01341582  0.69729781  0.44604314     0.36700
C835        C  0.99469285  0.71857987  0.51333207     0.06300
F836        F  0.95766467  0.74935264  0.48211120    -0.19500
H837        H  0.96072015  0.74181448  0.43362198     0.16100
F838        F  0.03167609  0.68019692  0.43449620    -0.23200
H839        H  0.02797630  0.68704133  0.48343248     0.17900
C840        C  0.97038690  0.71542548  0.52755750     0.25900
C841        C  0.97075351  0.71871570  0.55392394    -0.11800
C842        C  0.99536578  0.72492768  0.56680991    -0.25800
C843        C  0.01981800  0.72774183  0.55252230     0.36800
C844        C  0.01937515  0.72453322  0.52608101    -0.27400
F845        F  0.94633320  0.70857901  0.51602728    -0.19600
H846        H  0.95165872  0.71603704  0.56428108     0.16100
F847        F  0.04410156  0.73406186  0.56388442    -0.23300
H848        H  0.03830619  0.72718989  0.51545215     0.18000
C849        C  0.41646661  0.77010024  0.81532773    -0.27300
C850        C  0.39322126  0.76180750  0.82914891     0.06300
C851        C  0.39535935  0.75803675  0.85552161     0.25900
C852        C  0.42035951  0.76285644  0.86787856    -0.11800
C853        C  0.44372273  0.77154705  0.85419284    -0.25700
C854        C  0.44147714  0.77509551  0.82764881     0.36700
C855        C  0.36671683  0.75753627  0.81597701     0.06300
F856        F  0.37333957  0.74932027  0.86925471    -0.19500
H857        H  0.42138816  0.75968165  0.88823617     0.16100
F858        F  0.46310852  0.78407954  0.81358127    -0.23200
H859        H  0.41506150  0.77324674  0.79497598     0.17900
C860        C  0.34342732  0.77302412  0.82277272     0.25900
C861        C  0.31852524  0.76912129  0.81000787    -0.11800
C862        C  0.31636761  0.74974282  0.79020924    -0.25800
C863        C  0.33975230  0.73406014  0.78358612     0.36800
C864        C  0.36471099  0.73813269  0.79629810    -0.27400
F865        F  0.34497522  0.79243695  0.84131973    -0.19600
H866        H  0.30098140  0.78159725  0.81544602     0.16100
F867        F  0.33849367  0.71451028  0.76514863    -0.23300
H868        H  0.38248469  0.72591804  0.79096558     0.18000
C869        C  0.57087127  0.78803387  0.81419967    -0.27300
C870        C  0.59566889  0.78535166  0.82772051     0.06300
C871        C  0.59478125  0.78455368  0.85443290     0.25900
C872        C  0.56951257  0.78524765  0.86715408    -0.11800
C873        C  0.54456394  0.78659835  0.85358563    -0.25700
C874        C  0.54557838  0.78853775  0.82687899     0.36700
C875        C  0.62209156  0.78199518  0.81379163     0.06300
F876        F  0.61820760  0.78173908  0.86826049    -0.19500
H877        H  0.56953792  0.78382400  0.88769441     0.16100
F878        F  0.52224111  0.79079759  0.81286756    -0.23200
H879        H  0.57106279  0.78940735  0.79365456     0.17900
C880        C  0.62423154  0.76292444  0.79372942     0.25900
C881        C  0.64918209  0.75932880  0.78095465    -0.11800
C882        C  0.67271372  0.77438506  0.78798810    -0.25800
C883        C  0.67058575  0.79355282  0.80807640     0.36800
C884        C  0.64547318  0.79733431  0.82071634    -0.27400
F885        F  0.60241065  0.74702839  0.78696569    -0.19600
H886        H  0.65014536  0.74429203  0.76575585     0.16100
F887        F  0.69259231  0.80887142  0.81541803    -0.23300
H888        H  0.64426400  0.81240053  0.83587654     0.18000
C889        C  0.64722902  0.77379038  0.17333756    -0.27300
C890        C  0.62344872  0.78016708  0.18741037     0.06300
C891        C  0.62549226  0.78298104  0.21395981     0.25900
C892        C  0.65074532  0.77904332  0.22611001    -0.11800
C893        C  0.67447301  0.77273983  0.21202453    -0.25700
C894        C  0.67259494  0.77029386  0.18547450     0.36700
C895        C  0.59656014  0.78333872  0.17439569     0.06300
F896        F  0.60318934  0.79001142  0.22811188    -0.19500
H897        H  0.65183938  0.78122169  0.24658546     0.16100
F898        F  0.69499954  0.76341290  0.17140152    -0.23200
H899        H  0.64605991  0.77100383  0.15293639     0.17900
C900        C  0.59406328  0.79986972  0.15255766     0.25900
C901        C  0.56872254  0.80226082  0.14021460    -0.11800
C902        C  0.54531092  0.78848098  0.14949143    -0.25800
C903        C  0.54778036  0.77203176  0.17142141     0.36800
C904        C  0.57320839  0.76944816  0.18362512    -0.27400
F905        F  0.61598955  0.81414021  0.14341266    -0.19600
H906        H  0.56737998  0.81514887  0.12343500     0.16100
F907        F  0.52594630  0.75764007  0.18058350    -0.23300
H908        H  0.57476783  0.75614488  0.20010763     0.18000
C909        C  0.51959937  0.79642888  0.02833859    -0.27300
C910        C  0.49472728  0.80012550  0.01522002     0.06300
C911        C  0.47054222  0.80531065  0.02909985     0.25900
C912        C  0.47109298  0.80537730  0.05563785    -0.11800
C913        C  0.49576298  0.80044959  0.06887372    -0.25700
C914        C  0.52027357  0.79678526  0.05485906     0.36700
C915        C  0.49396665  0.79706650  0.98723048     0.06300
F916        F  0.44633001  0.81011108  0.01699589    -0.19500
H917        H  0.45200261  0.80877850  0.06582099     0.16100
F918        F  0.54475594  0.79226253  0.06658246    -0.23200
H919        H  0.53846009  0.79222640  0.01803853     0.17900
C920        C  0.51332872  0.81055111  0.97172762     0.25900
C921        C  0.51311557  0.80645411  0.94547056    -0.11800
C922        C  0.49345465  0.78912190  0.93413088    -0.25800
C923        C  0.47399743  0.77568972  0.94962496     0.36800
C924        C  0.47441071  0.77957279  0.97593352    -0.27400
F925        F  0.53215139  0.82806513  0.98190107    -0.19600
H926        H  0.52816050  0.81720908  0.93392827     0.16100
F927        F  0.45516751  0.75813025  0.93951962    -0.23300
H928        H  0.45972427  0.76845864  0.98758045     0.18000
C929        C  0.27452807  0.91212861  0.31301712    -0.27300
C930        C  0.26372095  0.88888830  0.32535041     0.06300
C931        C  0.25736094  0.89030992  0.35137646     0.25900
C932        C  0.26166723  0.91470666  0.36477177    -0.11800
C933        C  0.27213227  0.93811574  0.35241180    -0.25700
C934        C  0.27871482  0.93662222  0.32638635     0.36700
C935        C  0.26008101  0.86287818  0.31130443     0.06300
F936        F  0.24641774  0.86827600  0.36370839    -0.19500
H937        H  0.25622732  0.91544663  0.38473527     0.16100
F938        F  0.28978046  0.95854794  0.31400000    -0.23200
H939        H  0.28009465  0.91115830  0.29309106     0.17900
C940        C  0.24518651  0.86196202  0.28842547     0.25900
C941        C  0.24195139  0.83695558  0.27554187    -0.11800
C942        C  0.25349520  0.81256641  0.28532191    -0.25800
C943        C  0.26843639  0.81372391  0.30829752     0.36800
C944        C  0.27171518  0.83866173  0.32098345    -0.27400
F945        F  0.23327253  0.88508332  0.27888612    -0.19600
H946        H  0.23030602  0.83668906  0.25798982     0.16100
F947        F  0.28002589  0.79086050  0.31866410    -0.23300
H948        H  0.28356245  0.83909874  0.33843135     0.18000
C949        C  0.23997785  0.64071970  0.17384134    -0.27300
C950        C  0.24240269  0.61609736  0.18780205     0.06300
C951        C  0.24390671  0.61748073  0.21447881     0.25900
C952        C  0.24325415  0.64298728  0.22674029    -0.11800
C953        C  0.24061339  0.66753745  0.21275320    -0.25700
C954        C  0.23864845  0.66617469  0.18614448     0.36700
C955        C  0.24310381  0.58922297  0.17435738     0.06300
F956        F  0.24545342  0.59423180  0.22879571    -0.19500
H957        H  0.24464536  0.64350310  0.24728183     0.16100
F958        F  0.23639795  0.68941936  0.17190456    -0.23200
H959        H  0.23946385  0.64032812  0.15327479     0.17900
C960        C  0.22489018  0.58394609  0.15412544     0.25900
C961        C  0.22610732  0.55899915  0.14105951    -0.11800
C962        C  0.24482157  0.53851076  0.14836076    -0.25800
C963        C  0.26272850  0.54335236  0.16882451     0.36800
C964        C  0.26213347  0.56871980  0.18145770    -0.27400
F965        F  0.20535772  0.60257145  0.14735674    -0.19600
H966        H  0.21189253  0.55539868  0.12554402     0.16100
F967        F  0.28131687  0.52396080  0.17605744    -0.23300
H968        H  0.27678115  0.57243425  0.19658110     0.18000
C969        C  0.36630853  0.74676659  0.20629703    -0.27300
C970        C  0.36718554  0.76635561  0.18663924     0.06300
C971        C  0.34275695  0.78003715  0.17975650     0.25900
C972        C  0.31808461  0.77426310  0.19242699    -0.11800
C973        C  0.31721362  0.75486664  0.21231731    -0.25700
C974        C  0.34168609  0.74108629  0.21908439     0.36700
C975        C  0.39354596  0.77223939  0.17334215     0.06300
F976        F  0.34285276  0.79953338  0.16122585    -0.19500
H977        H  0.29968045  0.78532188  0.18684592     0.16100
F978        F  0.34186536  0.72179096  0.23777561    -0.23200
H979        H  0.38473571  0.73558972  0.21161355     0.17900
C980        C  0.41778888  0.77761834  0.18710878     0.25900
C981        C  0.44255575  0.78273785  0.17438529    -0.11800
C982        C  0.44373605  0.78275878  0.14767008    -0.25800
C983        C  0.41935694  0.77746607  0.13390146     0.36800
C984        C  0.39464724  0.77221069  0.14667523    -0.27400
F985        F  0.41744602  0.77851005  0.21289491    -0.19600
H986        H  0.46081890  0.78690294  0.18555266     0.16100
F987        F  0.41931962  0.77673688  0.10810601    -0.23300
H988        H  0.37635642  0.76768125  0.13566086     0.18000
C989        C  0.09340631  0.70059202  0.34597644    -0.27300
C990        C  0.09595916  0.71747766  0.32435812     0.06300
C991        C  0.07262343  0.73196641  0.31573388     0.25900
C992        C  0.04748852  0.72963790  0.32853996    -0.11800
C993        C  0.04511178  0.71327837  0.35047566    -0.25700
C994        C  0.06834399  0.69863367  0.35904918     0.36700
C995        C  0.12289880  0.72010190  0.31100130     0.06300
F996        F  0.07432113  0.74924048  0.29548325    -0.19500
H997        H  0.03002544  0.74139773  0.32170690     0.16100
F998        F  0.06675038  0.68206583  0.37979848    -0.23200
H999        H  0.11086067  0.68877828  0.35272800     0.17900
C1000       C  0.14743067  0.72489213  0.32460782     0.25900
C1001       C  0.17249423  0.72793072  0.31173186    -0.11800
C1002       C  0.17356916  0.72677072  0.28507570    -0.25800
C1003       C  0.14913821  0.72177370  0.27146961     0.36800
C1004       C  0.12417161  0.71824587  0.28435219    -0.27400
F1005       F  0.14706907  0.72767623  0.35027969    -0.19600
H1006       H  0.19099874  0.73200901  0.32259920     0.16100
F1007       F  0.14944803  0.71976834  0.24573279    -0.23300
H1008       H  0.10575048  0.71397845  0.27343672     0.18000
loop_ 
_geom_bond_atom_site_label_1 
_geom_bond_atom_site_label_2 
_geom_bond_distance 
_geom_bond_site_symmetry_2 
_ccdc_geom_bond_type 
O1           Ni9   1.922       .  S
O1           C11   1.282       .  A
O2           Ni9   1.923       .  S
O2           C12   1.283       .  A
O3           Ni9   1.897       .  S
O3           C13   1.277       .  A
O4           Ni9   1.901       .  S
O4           C14   1.278       .  A
O5          Ni10   1.918       .  S
O5           C14   1.282       .  A
O6          Ni10   1.921       .  S
O6           C13   1.283       .  A
O7          Ni10   1.917       .  S
O7           C12   1.281       .  A
O8          Ni10   1.919       .  S
O8           C11   1.281       .  A
Ni9         Ni10   2.386       .  S
C11        C1002   1.480       .  S
C12         C973   1.486       .  S
C13         C942   1.477       .  S
C14         C953   1.473       .  S
C15         C982   1.487       .  S
C15          N16   1.360       .  A
C15          N20   1.358       .  A
N16          C17   1.359       .  A
C17         C902   1.479       .  S
C17          N18   1.356       .  A
N18          C19   1.356       .  A
C19         C913   1.483       .  S
C19          N20   1.358       .  A
C21         C873   1.486       .  S
C21          N22   1.360       .  A
C21          N26   1.357       .  A
N22          C23   1.360       .  A
C23         C853   1.485       .  S
C23          N24   1.359       .  A
N24          C25   1.357       .  A
C25         C922   1.476       .  S
C25          N26   1.357       .  A
C27         C813   1.488       .  S
C27          N28   1.360       .  A
C27          N32   1.357       .  A
N28          C29   1.361   1_655  A
C29         C993   1.483       .  S
C29          N30   1.361       .  A
N30          C31   1.359   1_455  A
C31         C833   1.478       .  S
C31          N32   1.357       .  A
C33         C773   1.487       .  S
C33          N34   1.360   1_455  A
C33          N38   1.360       .  A
N34          C35   1.359       .  A
C35         C793   1.484       .  S
C35          N36   1.358       .  A
N36          C37   1.359       .  A
C37         C842   1.487       .  S
C37          N38   1.359   1_655  A
O39         Ni47   1.908       .  S
O39          C49   1.280       .  A
O40         Ni47   1.914       .  S
O40          C50   1.281       .  A
O41         Ni47   1.917       .  S
O41          C51   1.281       .  A
O42         Ni47   1.917       .  S
O42          C52   1.282       .  A
O43         Ni48   1.912       .  S
O43          C52   1.281       .  A
O44         Ni48   1.915       .  S
O44          C51   1.281       .  A
O45         Ni48   1.919       .  S
O45          C50   1.282       .  A
O46         Ni48   1.920       .  S
O46          C49   1.282       .  A
Ni47        Ni48   2.386       .  S
C49         C753   1.477       .  S
C50         C733   1.484       .  S
C51         C862   1.482       .  S
C52         C782   1.480       .  S
C53         C693   1.489       .  S
C53          N54   1.361       .  A
C53          N58   1.360       .  A
N54          C55   1.359       .  A
C55         C722   1.477       .  S
C55          N56   1.356       .  A
N56          C57   1.354       .  A
C57         C673   1.472       .  S
C57          N58   1.358       .  A
C59         C633   1.470       .  S
C59          N60   1.358       .  A
C59          N64   1.357       .  A
N60          C61   1.359       .  A
C61         C713   1.482       .  S
C61          N62   1.358       .  A
N62          C63   1.357       .  A
C63         C653   1.476       .  S
C63          N64   1.358       .  A
C65         C962   1.467       .  S
C65          N66   1.356       .  A
C65          N70   1.357       .  A
N66          C67   1.355       .  A
C67         C622   1.471       .  S
C67          N68   1.354       .  A
N68          C69   1.355       .  A
C69         C602   1.474       .  S
C69          N70   1.358       .  A
C71         C582   1.486       .  S
C71          N72   1.359       .  A
C71          N76   1.360       .  A
N72          C73   1.357       .  A
C73         C613   1.475       .  S
C73          N74   1.354       .  A
N74          C75   1.354       .  A
C75         C762   1.485       .  S
C75          N76   1.360       .  A
C77         C513   1.483       .  S
C77          N78   1.357       .  A
C77          N82   1.359       .  A
N78          C79   1.356       .  A
C79         C553   1.481       .  S
C79          N80   1.359   1_455  A
N80          C81   1.360       .  A
C81         C533   1.482       .  S
C81          N82   1.360   1_655  A
C83         C493   1.475       .  S
C83          N84   1.359       .  A
C83          N88   1.356   1_655  A
N84          C85   1.360   1_655  A
C85         C562   1.483       .  S
C85          N86   1.359       .  A
N86          C87   1.357       .  A
C87         C473   1.470       .  S
C87          N88   1.356       .  A
C89         C433   1.471       .  S
C89          N90   1.355   1_545  A
C89          N94   1.356       .  A
N90          C91   1.355       .  A
C91         C933   1.470       .  S
C91          N92   1.356       .  A
N92          C93   1.356       .  A
C93         C453   1.473       .  S
C93          N94   1.357   1_565  A
C95         C742   1.481       .  S
C95          N96   1.358       .  A
C95         N100   1.361       .  A
N96          C97   1.355       .  A
C97         C462   1.473       .  S
C97          N98   1.355   1_565  A
N98          C99   1.356       .  A
C99         C413   1.482       .  S
C99         N100   1.360   1_545  A
O101       Ni109   1.912       .  S
O101        C111   1.280       .  A
O102       Ni109   1.913       .  S
O102        C112   1.281       .  A
O103       Ni109   1.911       .  S
O103        C113   1.281       .  A
O104       Ni109   1.916       .  S
O104        C114   1.281       .  A
O105       Ni110   1.914       .  S
O105        C114   1.281       .  A
O106       Ni110   1.918       .  S
O106        C113   1.282       .  A
O107       Ni110   1.911       .  S
O107        C112   1.281       .  A
O108       Ni110   1.908       .  S
O108        C111   1.279       .  A
Ni109      Ni110   2.388       .  S
C111        C482   1.468       .  S
C112        C642   1.477       .  S
C113        C422   1.482       .  S
C114        C573   1.480       .  S
O115       Ni123   1.919       .  S
O115        C125   1.282       .  A
O116       Ni123   1.918       .  S
O116        C126   1.283       .  A
O117       Ni123   1.904       .  S
O117        C127   1.279       .  A
O118       Ni123   1.906       .  S
O118        C128   1.279       .  A
O119       Ni124   1.911       .  S
O119        C128   1.281       .  A
O120       Ni124   1.910       .  S
O120        C127   1.281       .  A
O121       Ni124   1.913       .  S
O121        C126   1.280       .  A
O122       Ni124   1.911       .  S
O122        C125   1.281       .  A
Ni123      Ni124   2.386       .  S
C125        C682   1.479       .  S
C126        C522   1.484       .  S
C127        C593   1.474       .  S
C128        C442   1.476       .  S
O129       Ni137   1.916       .  S
O129        C139   1.281       .  A
O130       Ni137   1.915       .  S
O130        C140   1.281       .  A
O131       Ni137   1.915       .  S
O131        C141   1.282       .  A
O132       Ni137   1.920       .  S
O132        C142   1.282       .  A
O133       Ni138   1.912       .  S
O133        C142   1.281       .  A
O134       Ni138   1.916       .  S
O134        C141   1.281       .  A
O135       Ni138   1.920       .  S
O135        C140   1.282       .  A
O136       Ni138   1.922       .  S
O136        C139   1.282       .  A
Ni137      Ni138   2.386       .  S
C139        C542   1.477       .  S
C140        C702   1.482       .  S
C141        C393   1.483       .  S
C142        C373   1.484       .  S
C143        C382   1.473       .  S
C143        N144   1.359       .  A
C143        N148   1.356       .  A
N144        C145   1.361       .  A
C145        C362   1.482       .  S
C145        N146   1.359       .  A
N146        C147   1.357       .  A
C147        C333   1.481       .  S
C147        N148   1.357       .  A
C149        C313   1.483       .  S
C149        N150   1.359       .  A
C149        N154   1.360       .  A
N150        C151   1.357       .  A
C151        C353   1.477       .  S
C151        N152   1.355       .  A
N152        C153   1.357       .  A
C153        C293   1.484       .  S
C153        N154   1.359       .  A
C155        C253   1.468       .  S
C155        N156   1.355       .  A
C155        N160   1.355   1_565  A
N156        C157   1.357   1_565  A
C157        C273   1.483       .  S
C157        N158   1.360       .  A
N158        C159   1.360       .  A
C159        C402   1.480       .  S
C159        N160   1.357       .  A
C161        C213   1.483       .  S
C161        N162   1.358       .  A
C161        N166   1.358       .  A
N162        C163   1.359   1_545  A
C163        C242   1.482       .  S
C163        N164   1.356       .  A
N164        C165   1.356   1_565  A
C165        C282   1.473       .  S
C165        N166   1.357       .  A
O167       Ni175   1.915       .  S
O167        C177   1.281       .  A
O168       Ni175   1.912       .  S
O168        C178   1.280       .  A
O169       Ni175   1.915       .  S
O169        C179   1.281       .  A
O170       Ni175   1.917       .  S
O170        C180   1.282       .  A
O171       Ni176   1.909       .  S
O171        C180   1.280       .  A
O172       Ni176   1.912       .  S
O172        C179   1.281       .  A
O173       Ni176   1.920       .  S
O173        C178   1.282       .  A
O174       Ni176   1.920       .  S
O174        C177   1.283       .  A
Ni175      Ni176   2.385       .  S
C177        C662   1.485       .  S
C178        C502   1.481       .  S
C179        C302   1.479       .  S
C180        C222   1.481       .  S
O181       Ni189   1.924       .  S
O181        C191   1.283       .  A
O182       Ni189   1.919       .  S
O182        C192   1.283       .  A
O183       Ni189   1.909       .  S
O183        C193   1.279       .  A
O184       Ni189   1.910       .  S
O184        C194   1.280       .  A
O185       Ni190   1.922       .  S
O185        C194   1.284       .  A
O186       Ni190   1.921       .  S
O186        C193   1.282       .  A
O187       Ni190   1.904       .  S
O187        C192   1.278       .  A
O188       Ni190   1.903       .  S
O188        C191   1.279       .  A
Ni189      Ni190   2.387       .  S
C191        C342   1.480       .  S
C192        C262   1.474       .  S
C193        C893   1.473       .  S
C194        C822   1.483       .  S
O195       Ni203   1.913       .  S
O195        C205   1.281       .  A
O196       Ni203   1.917       .  S
O196        C206   1.282       .  A
O197       Ni203   1.918       .  S
O197        C207   1.282       .  A
O198       Ni203   1.920       .  S
O198        C208   1.281       .  A
O199       Ni204   1.919       .  S
O199        C208   1.283       .  A
O200       Ni204   1.922       .  S
O200        C207   1.282       .  A
O201       Ni204   1.910       .  S
O201        C206   1.280       .  A
O202       Ni204   1.911       .  S
O202        C205   1.280       .  A
Ni203      Ni204   2.385       .  S
C205        C233   1.478       .  S
C206        C322   1.481       .  S
C207        C802   1.489       .  S
C208        C882   1.486       .  S
C209        C210   1.403       .  A
C209        C214   1.395       .  A
C209        H219   1.084       .  S
C210        C215   1.479       .  S
C210        C211   1.405       .  A
C211        C212   1.397       .  A
C211        F216   1.358       .  S
C212        C213   1.408       .  A
C212        H217   1.083       .  S
C213        C214   1.410       .  A
C214        F218   1.357       .  S
C215        C220   1.405       .  A
C215        C224   1.402       .  A
C220        C221   1.398       .  A
C220        F225   1.357       .  S
C221        C222   1.407       .  A
C221        H226   1.083       .  S
C222        C223   1.410       .  A
C223        C224   1.395       .  A
C223        F227   1.357       .  S
C224        H228   1.084       .  S
C229        C230   1.403       .  A
C229        C234   1.393       .  A
C229        H239   1.083       .  S
C230        C235   1.478       .  S
C230        C231   1.405       .  A
C231        C232   1.397       .  A
C231        F236   1.358       .  S
C232        C233   1.407       .  A
C232        H237   1.083       .  S
C233        C234   1.408       .  A
C234        F238   1.357       .  S
C235        C240   1.405       .  A
C235        C244   1.402       .  A
C240        C241   1.394       .  A
C240        F245   1.358       .  S
C241        C242   1.406       .  A
C241        H246   1.083       .  S
C242        C243   1.412       .  A
C243        C244   1.397       .  A
C243        F247   1.357       .  S
C244        H248   1.083       .  S
C249        C250   1.405       .  A
C249        C254   1.395       .  A
C249        H259   1.083       .  S
C250        C255   1.480       .  S
C250        C251   1.408       .  A
C251        C252   1.395       .  A
C251        F256   1.358       .  S
C252        C253   1.402       .  A
C252        H257   1.084       .  S
C253        C254   1.404       .  A
C254        F258   1.357       .  S
C255        C260   1.408       .  A
C255        C264   1.403       .  A
C260        C261   1.396       .  A
C260        F265   1.357       .  S
C261        C262   1.403       .  A
C261        H266   1.083       .  S
C262        C263   1.408       .  A
C263        C264   1.395       .  A
C263        F267   1.358       .  S
C264        H268   1.083       .  S
C269        C270   1.402   1_565  A
C269        C274   1.395       .  A
C269        H279   1.084       .  S
C270        C275   1.479       .  S
C270        C271   1.405       .  A
C271        C272   1.398       .  A
C271        F276   1.357       .  S
C272        C273   1.407       .  A
C272        H277   1.083       .  S
C273        C274   1.411   1_545  A
C274        F278   1.357       .  S
C275        C280   1.406   1_545  A
C275        C284   1.404       .  A
C280        C281   1.395       .  A
C280        F285   1.357       .  S
C281        C282   1.403   1_565  A
C281        H286   1.084       .  S
C282        C283   1.407       .  A
C283        C284   1.397       .  A
C283        F287   1.357       .  S
C284        H288   1.083       .  S
C289        C290   1.405       .  A
C289        C294   1.399       .  A
C289        H299   1.083       .  S
C290        C295   1.482       .  S
C290        C291   1.405       .  A
C291        C292   1.394       .  A
C291        F296   1.358       .  S
C292        C293   1.407       .  A
C292        H297   1.083       .  S
C293        C294   1.410       .  A
C294        F298   1.357       .  S
C295        C300   1.406       .  A
C295        C304   1.405       .  A
C300        C301   1.397       .  A
C300        F305   1.357       .  S
C301        C302   1.406       .  A
C301        H306   1.083       .  S
C302        C303   1.408       .  A
C303        C304   1.396       .  A
C303        F307   1.357       .  S
C304        H308   1.083       .  S
C309        C310   1.403       .  A
C309        C314   1.397       .  A
C309        H319   1.083       .  S
C310        C315   1.480       .  S
C310        C311   1.405       .  A
C311        C312   1.397       .  A
C311        F316   1.358       .  S
C312        C313   1.407       .  A
C312        H317   1.083       .  S
C313        C314   1.409       .  A
C314        F318   1.357       .  S
C315        C320   1.406       .  A
C315        C324   1.402       .  A
C320        C321   1.398       .  A
C320        F325   1.357       .  S
C321        C322   1.406       .  A
C321        H326   1.083       .  S
C322        C323   1.410       .  A
C323        C324   1.395       .  A
C323        F327   1.357       .  S
C324        H328   1.084       .  S
C329        C330   1.404       .  A
C329        C334   1.398       .  A
C329        H339   1.083       .  S
C330        C335   1.480       .  S
C330        C331   1.404       .  A
C331        C332   1.395       .  A
C331        F336   1.357       .  S
C332        C333   1.406       .  A
C332        H337   1.083       .  S
C333        C334   1.410       .  A
C334        F338   1.357       .  S
C335        C340   1.404       .  A
C335        C344   1.405       .  A
C340        C341   1.395       .  A
C340        F345   1.358       .  S
C341        C342   1.407       .  A
C341        H346   1.083       .  S
C342        C343   1.408       .  A
C343        C344   1.398       .  A
C343        F347   1.357       .  S
C344        H348   1.083       .  S
C349        C350   1.406       .  A
C349        C354   1.398       .  A
C349        H359   1.083       .  S
C350        C355   1.483   1_556  S
C350        C351   1.407       .  A
C351        C352   1.396       .  A
C351        F356   1.357       .  S
C352        C353   1.404       .  A
C352        H357   1.083       .  S
C353        C354   1.406       .  A
C354        F358   1.357       .  S
C355        C360   1.407       .  A
C355        C364   1.403       .  A
C360        C361   1.399       .  A
C360        F365   1.358       .  S
C361        C362   1.407       .  A
C361        H366   1.083       .  S
C362        C363   1.409       .  A
C363        C364   1.394       .  A
C363        F367   1.356       .  S
C364        H368   1.083       .  S
C369        C370   1.402       .  A
C369        C374   1.396       .  A
C369        H379   1.083       .  S
C370        C375   1.483       .  S
C370        C371   1.407       .  A
C371        C372   1.399       .  A
C371        F376   1.358       .  S
C372        C373   1.407       .  A
C372        H377   1.083       .  S
C373        C374   1.410       .  A
C374        F378   1.357       .  S
C375        C380   1.407       .  A
C375        C384   1.407       .  A
C380        C381   1.396       .  A
C380        F385   1.357       .  S
C381        C382   1.403       .  A
C381        H386   1.083       .  S
C382        C383   1.405       .  A
C383        C384   1.399       .  A
C383        F387   1.358       .  S
C384        H388   1.083       .  S
C389        C390   1.405       .  A
C389        C394   1.400       .  A
C389        H399   1.083       .  S
C390        C395   1.484       .  S
C390        C391   1.406       .  A
C391        C392   1.394       .  A
C391        F396   1.357       .  S
C392        C393   1.405       .  A
C392        H397   1.083       .  S
C393        C394   1.411       .  A
C394        F398   1.358       .  S
C395        C400   1.407       .  A
C395        C404   1.405       .  A
C400        C401   1.397       .  A
C400        F405   1.358       .  S
C401        C402   1.407       .  A
C401        H406   1.083       .  S
C402        C403   1.407       .  A
C403        C404   1.396       .  A
C403        F407   1.357       .  S
C404        H408   1.083       .  S
C409        C410   1.401       .  A
C409        C414   1.394       .  A
C409        H419   1.083       .  S
C410        C415   1.479       .  S
C410        C411   1.406       .  A
C411        C412   1.399       .  A
C411        F416   1.357       .  S
C412        C413   1.406       .  A
C412        H417   1.083       .  S
C413        C414   1.411       .  A
C414        F418   1.357       .  S
C415        C420   1.405       .  A
C415        C424   1.403       .  A
C420        C421   1.395       .  A
C420        F425   1.358       .  S
C421        C422   1.406       .  A
C421        H426   1.083       .  S
C422        C423   1.410       .  A
C423        C424   1.398       .  A
C423        F427   1.357       .  S
C424        H428   1.083       .  S
C429        C430   1.402       .  A
C429        C434   1.393       .  A
C429        H439   1.084       .  S
C430        C435   1.472       .  S
C430        C431   1.404       .  A
C431        C432   1.395       .  A
C431        F436   1.358       .  S
C432        C433   1.405       .  A
C432        H437   1.083       .  S
C433        C434   1.407       .  A
C434        F438   1.357       .  S
C435        C440   1.404       .  A
C435        C444   1.401       .  A
C440        C441   1.394       .  A
C440        F445   1.358       .  S
C441        C442   1.406       .  A
C441        H446   1.083       .  S
C442        C443   1.410       .  A
C443        C444   1.393       .  A
C443        F447   1.357       .  S
C444        H448   1.084       .  S
C449        C450   1.402   1_545  A
C449        C454   1.394       .  A
C449        H459   1.083       .  S
C450        C455   1.472       .  S
C450        C451   1.404       .  A
C451        C452   1.395       .  A
C451        F456   1.358       .  S
C452        C453   1.405       .  A
C452        H457   1.083       .  S
C453        C454   1.408   1_565  A
C454        F458   1.358       .  S
C455        C460   1.404       .  A
C455        C464   1.401   1_565  A
C460        C461   1.396       .  A
C460        F465   1.357       .  S
C461        C462   1.405       .  A
C461        H466   1.083       .  S
C462        C463   1.407   1_565  A
C463        C464   1.393       .  A
C463        F467   1.357       .  S
C464        H468   1.084       .  S
C469        C470   1.403       .  A
C469        C474   1.394       .  A
C469        H479   1.083       .  S
C470        C475   1.478       .  S
C470        C471   1.407       .  A
C471        C472   1.396       .  A
C471        F476   1.358       .  S
C472        C473   1.403       .  A
C472        H477   1.083       .  S
C473        C474   1.406       .  A
C474        F478   1.358       .  S
C475        C480   1.407       .  A
C475        C484   1.404       .  A
C480        C481   1.395       .  A
C480        F485   1.358       .  S
C481        C482   1.403       .  A
C481        H486   1.083       .  S
C482        C483   1.405       .  A
C483        C484   1.395       .  A
C483        F487   1.358       .  S
C484        H488   1.083       .  S
C489        C490   1.406       .  A
C489        C494   1.398       .  A
C489        H499   1.083       .  S
C490        C495   1.488       .  S
C490        C491   1.409       .  A
C491        C492   1.397       .  A
C491        F496   1.357       .  S
C492        C493   1.402       .  A
C492        H497   1.083       .  S
C493        C494   1.406       .  A
C494        F498   1.358       .  S
C495        C500   1.408       .  A
C495        C504   1.406       .  A
C500        C501   1.398       .  A
C500        F505   1.358       .  S
C501        C502   1.406       .  A
C501        H506   1.083       .  S
C502        C503   1.407       .  A
C503        C504   1.397       .  A
C503        F507   1.357       .  S
C504        H508   1.083       .  S
C509        C510   1.404       .  A
C509        C514   1.398       .  A
C509        H519   1.083       .  S
C510        C515   1.481       .  S
C510        C511   1.405       .  A
C511        C512   1.396       .  A
C511        F516   1.358       .  S
C512        C513   1.407       .  A
C512        H517   1.083       .  S
C513        C514   1.409       .  A
C514        F518   1.357       .  S
C515        C520   1.406       .  A
C515        C524   1.403       .  A
C520        C521   1.397       .  A
C520        F525   1.357       .  S
C521        C522   1.406       .  A
C521        H526   1.083       .  S
C522        C523   1.411       .  A
C523        C524   1.398       .  A
C523        F527   1.357       .  S
C524        H528   1.083       .  S
C529        C530   1.406       .  A
C529        C534   1.399       .  A
C529        H539   1.083       .  S
C530        C535   1.491       .  S
C530        C531   1.409       .  A
C531        C532   1.399       .  A
C531        F536   1.357       .  S
C532        C533   1.405       .  A
C532        H537   1.083       .  S
C533        C534   1.407       .  A
C534        F538   1.357       .  S
C535        C540   1.410       .  A
C535        C544   1.408       .  A
C540        C541   1.398       .  A
C540        F545   1.357       .  S
C541        C542   1.403       .  A
C541        H546   1.084       .  S
C542        C543   1.405       .  A
C543        C544   1.401       .  A
C543        F547   1.357       .  S
C544        H548   1.083       .  S
C549        C550   1.404       .  A
C549        C554   1.396       .  A
C549        H559   1.083       .  S
C550        C555   1.486       .  S
C550        C551   1.408   1_455  A
C551        C552   1.399       .  A
C551        F556   1.357       .  S
C552        C553   1.405   1_655  A
C552        H557   1.083       .  S
C553        C554   1.409       .  A
C554        F558   1.358       .  S
C555        C560   1.408       .  A
C555        C564   1.405   1_455  A
C560        C561   1.397       .  A
C560        F565   1.358       .  S
C561        C562   1.406       .  A
C561        H566   1.083       .  S
C562        C563   1.408   1_455  A
C563        C564   1.398       .  A
C563        F567   1.357       .  S
C564        H568   1.083       .  S
C569        C570   1.405       .  A
C569        C574   1.397       .  A
C569        H579   1.083       .  S
C570        C575   1.485       .  S
C570        C571   1.407       .  A
C571        C572   1.397       .  A
C571        F576   1.357       .  S
C572        C573   1.405       .  A
C572        H577   1.083       .  S
C573        C574   1.408       .  A
C574        F578   1.357       .  S
C575        C580   1.407       .  A
C575        C584   1.404       .  A
C580        C581   1.397       .  A
C580        F585   1.358       .  S
C581        C582   1.407       .  A
C581        H586   1.083       .  S
C582        C583   1.410       .  A
C583        C584   1.397       .  A
C583        F587   1.357       .  S
C584        H588   1.083       .  S
C589        C590   1.401       .  A
C589        C594   1.395       .  A
C589        H599   1.083       .  S
C590        C595   1.469       .  S
C590        C591   1.402       .  A
C591        C592   1.392       .  A
C591        F596   1.358       .  S
C592        C593   1.405       .  A
C592        H597   1.083       .  S
C593        C594   1.410       .  A
C594        F598   1.358       .  S
C595        C600   1.402       .  A
C595        C604   1.401       .  A
C600        C601   1.394       .  A
C600        F605   1.358       .  S
C601        C602   1.407       .  A
C601        H606   1.083       .  S
C602        C603   1.407       .  A
C603        C604   1.393       .  A
C603        F607   1.357       .  S
C604        H608   1.083       .  S
C609        C610   1.400       .  A
C609        C614   1.392       .  A
C609        H619   1.084       .  S
C610        C615   1.471   1_556  S
C610        C611   1.404       .  A
C611        C612   1.396       .  A
C611        F616   1.358       .  S
C612        C613   1.405       .  A
C612        H617   1.083       .  S
C613        C614   1.409       .  A
C614        F618   1.357       .  S
C615        C620   1.404       .  A
C615        C624   1.401       .  A
C620        C621   1.394       .  A
C620        F625   1.358       .  S
C621        C622   1.404       .  A
C621        H626   1.083       .  S
C622        C623   1.408       .  A
C623        C624   1.393       .  A
C623        F627   1.358       .  S
C624        H628   1.084       .  S
C629        C630   1.405       .  A
C629        C634   1.396       .  A
C629        H639   1.083       .  S
C630        C635   1.481       .  S
C630        C631   1.408       .  A
C631        C632   1.397       .  A
C631        F636   1.358       .  S
C632        C633   1.402       .  A
C632        H637   1.084       .  S
C633        C634   1.404       .  A
C634        F638   1.358       .  S
C635        C640   1.406       .  A
C635        C644   1.405       .  A
C640        C641   1.395       .  A
C640        F645   1.357       .  S
C641        C642   1.405       .  A
C641        H646   1.083       .  S
C642        C643   1.408       .  A
C643        C644   1.397       .  A
C643        F647   1.358       .  S
C644        H648   1.083       .  S
C649        C650   1.404       .  A
C649        C654   1.397       .  A
C649        H659   1.083       .  S
C650        C655   1.483       .  S
C650        C651   1.407       .  A
C651        C652   1.398       .  A
C651        F656   1.357       .  S
C652        C653   1.404       .  A
C652        H657   1.083       .  S
C653        C654   1.407       .  A
C654        F658   1.358       .  S
C655        C660   1.406       .  A
C655        C664   1.403       .  A
C660        C661   1.399       .  A
C660        F665   1.357       .  S
C661        C662   1.407       .  A
C661        H666   1.083       .  S
C662        C663   1.411       .  A
C663        C664   1.397       .  A
C663        F667   1.357       .  S
C664        H668   1.084       .  S
C669        C670   1.406       .  A
C669        C674   1.396       .  A
C669        H679   1.083       .  S
C670        C675   1.485       .  S
C670        C671   1.408       .  A
C671        C672   1.398       .  A
C671        F676   1.357       .  S
C672        C673   1.404       .  A
C672        H677   1.083       .  S
C673        C674   1.404       .  A
C674        F678   1.358       .  S
C675        C680   1.407       .  A
C675        C684   1.406       .  A
C680        C681   1.396       .  A
C680        F685   1.358       .  S
C681        C682   1.405       .  A
C681        H686   1.083       .  S
C682        C683   1.408       .  A
C683        C684   1.399       .  A
C683        F687   1.357       .  S
C684        H688   1.083       .  S
C689        C690   1.404       .  A
C689        C694   1.398       .  A
C689        H699   1.083       .  S
C690        C695   1.487       .  S
C690        C691   1.407       .  A
C691        C692   1.398       .  A
C691        F696   1.358       .  S
C692        C693   1.408       .  A
C692        H697   1.083       .  S
C693        C694   1.411       .  A
C694        F698   1.357       .  S
C695        C700   1.407       .  A
C695        C704   1.406       .  A
C700        C701   1.397       .  A
C700        F705   1.358       .  S
C701        C702   1.406       .  A
C701        H706   1.083       .  S
C702        C703   1.408       .  A
C703        C704   1.399       .  A
C703        F707   1.357       .  S
C704        H708   1.083       .  S
C709        C710   1.403       .  A
C709        C714   1.396       .  A
C709        H719   1.083       .  S
C710        C715   1.481   1_556  S
C710        C711   1.406       .  A
C711        C712   1.397       .  A
C711        F716   1.358       .  S
C712        C713   1.406       .  A
C712        H717   1.083       .  S
C713        C714   1.410       .  A
C714        F718   1.357       .  S
C715        C720   1.407       .  A
C715        C724   1.402       .  A
C720        C721   1.399       .  A
C720        F725   1.358       .  S
C721        C722   1.405       .  A
C721        H726   1.083       .  S
C722        C723   1.408       .  A
C723        C724   1.394       .  A
C723        F727   1.358       .  S
C724        H728   1.083       .  S
C729        C730   1.404       .  A
C729        C734   1.397       .  A
C729        H739   1.083       .  S
C730        C735   1.484       .  S
C730        C731   1.407       .  A
C731        C732   1.398       .  A
C731        F736   1.358       .  S
C732        C733   1.407       .  A
C732        H737   1.083       .  S
C733        C734   1.409       .  A
C734        F738   1.357       .  S
C735        C740   1.406       .  A
C735        C744   1.406       .  A
C740        C741   1.396       .  A
C740        F745   1.357       .  S
C741        C742   1.407       .  A
C741        H746   1.083       .  S
C742        C743   1.407       .  A
C743        C744   1.398       .  A
C743        F747   1.357       .  S
C744        H748   1.083       .  S
C749        C750   1.401       .  A
C749        C754   1.392       .  A
C749        H759   1.084       .  S
C750        C755   1.477       .  S
C750        C751   1.407       .  A
C751        C752   1.400       .  A
C751        F756   1.358       .  S
C752        C753   1.406       .  A
C752        H757   1.083       .  S
C753        C754   1.407       .  A
C754        F758   1.357       .  S
C755        C760   1.405       .  A
C755        C764   1.400       .  A
C760        C761   1.396       .  A
C760        F765   1.357       .  S
C761        C762   1.406       .  A
C761        H766   1.083       .  S
C762        C763   1.414       .  A
C763        C764   1.396       .  A
C763        F767   1.357       .  S
C764        H768   1.083       .  S
C769        C770   1.402       .  A
C769        C774   1.397       .  A
C769        H779   1.083       .  S
C770        C775   1.479       .  S
C770        C771   1.404       .  A
C771        C772   1.398       .  A
C771        F776   1.358       .  S
C772        C773   1.408       .  A
C772        H777   1.083       .  S
C773        C774   1.411       .  A
C774        F778   1.357       .  S
C775        C780   1.404       .  A
C775        C784   1.403       .  A
C780        C781   1.396       .  A
C780        F785   1.358       .  S
C781        C782   1.406       .  A
C781        H786   1.083       .  S
C782        C783   1.409       .  A
C783        C784   1.399       .  A
C783        F787   1.357       .  S
C784        H788   1.083       .  S
C789        C790   1.403       .  A
C789        C794   1.399       .  A
C789        H799   1.084       .  S
C790        C795   1.484       .  S
C790        C791   1.407       .  A
C791        C792   1.400       .  A
C791        F796   1.357       .  S
C792        C793   1.406       .  A
C792        H797   1.083       .  S
C793        C794   1.409       .  A
C794        F798   1.357       .  S
C795        C800   1.405       .  A
C795        C804   1.404       .  A
C800        C801   1.398       .  A
C800        F805   1.357       .  S
C801        C802   1.408       .  A
C801        H806   1.083       .  S
C802        C803   1.411       .  A
C803        C804   1.401       .  A
C803        F807   1.357       .  S
C804        H808   1.083       .  S
C809        C810   1.405       .  A
C809        C814   1.398       .  A
C809        H819   1.083       .  S
C810        C815   1.486       .  S
C810        C811   1.406       .  A
C811        C812   1.398       .  A
C811        F816   1.358       .  S
C812        C813   1.409       .  A
C812        H817   1.083       .  S
C813        C814   1.410       .  A
C814        F818   1.357       .  S
C815        C820   1.407       .  A
C815        C824   1.405       .  A
C820        C821   1.397       .  A
C820        F825   1.357       .  S
C821        C822   1.405       .  A
C821        H826   1.083       .  S
C822        C823   1.411       .  A
C823        C824   1.398       .  A
C823        F827   1.358       .  S
C824        H828   1.083       .  S
C829        C830   1.406   1_455  A
C829        C834   1.401       .  A
C829        H839   1.083       .  S
C830        C835   1.483       .  S
C830        C831   1.406       .  A
C831        C832   1.395       .  A
C831        F836   1.358       .  S
C832        C833   1.404       .  A
C832        H837   1.083       .  S
C833        C834   1.407   1_655  A
C834        F838   1.357       .  S
C835        C840   1.406       .  A
C835        C844   1.404   1_655  A
C840        C841   1.396       .  A
C840        F845   1.357       .  S
C841        C842   1.407       .  A
C841        H846   1.083       .  S
C842        C843   1.412   1_655  A
C843        C844   1.400       .  A
C843        F847   1.357       .  S
C844        H848   1.083       .  S
C849        C850   1.401       .  A
C849        C854   1.398       .  A
C849        H859   1.084       .  S
C850        C855   1.477       .  S
C850        C851   1.403       .  A
C851        C852   1.397       .  A
C851        F856   1.358       .  S
C852        C853   1.408       .  A
C852        H857   1.083       .  S
C853        C854   1.411       .  A
C854        F858   1.356       .  S
C855        C860   1.404       .  A
C855        C864   1.402       .  A
C860        C861   1.396       .  A
C860        F865   1.358       .  S
C861        C862   1.406       .  A
C861        H866   1.083       .  S
C862        C863   1.410       .  A
C863        C864   1.398       .  A
C863        F867   1.357       .  S
C864        H868   1.084       .  S
C869        C870   1.405       .  A
C869        C874   1.398       .  A
C869        H879   1.083       .  S
C870        C875   1.486       .  S
C870        C871   1.406       .  A
C871        C872   1.398       .  A
C871        F876   1.357       .  S
C872        C873   1.408       .  A
C872        H877   1.083       .  S
C873        C874   1.409       .  A
C874        F878   1.357       .  S
C875        C880   1.407       .  A
C875        C884   1.405       .  A
C880        C881   1.396       .  A
C880        F885   1.358       .  S
C881        C882   1.405       .  A
C881        H886   1.083       .  S
C882        C883   1.411       .  A
C883        C884   1.401       .  A
C883        F887   1.357       .  S
C884        H888   1.083       .  S
C889        C890   1.406       .  A
C889        C894   1.398       .  A
C889        H899   1.083       .  S
C890        C895   1.483       .  S
C890        C891   1.407       .  A
C891        C892   1.396       .  A
C891        F896   1.358       .  S
C892        C893   1.403       .  A
C892        H897   1.084       .  S
C893        C894   1.405       .  A
C894        F898   1.357       .  S
C895        C900   1.406       .  A
C895        C904   1.405       .  A
C900        C901   1.396       .  A
C900        F905   1.358       .  S
C901        C902   1.406       .  A
C901        H906   1.083       .  S
C902        C903   1.408       .  A
C903        C904   1.398       .  A
C903        F907   1.357       .  S
C904        H908   1.083       .  S
C909        C910   1.403       .  A
C909        C914   1.396       .  A
C909        H919   1.083       .  S
C910        C915   1.480   1_554  S
C910        C911   1.405       .  A
C911        C912   1.396       .  A
C911        F916   1.357       .  S
C912        C913   1.406       .  A
C912        H917   1.083       .  S
C913        C914   1.411       .  A
C914        F918   1.357       .  S
C915        C920   1.406       .  A
C915        C924   1.405       .  A
C920        C921   1.396       .  A
C920        F925   1.357       .  S
C921        C922   1.405       .  A
C921        H926   1.083       .  S
C922        C923   1.407       .  A
C923        C924   1.397       .  A
C923        F927   1.358       .  S
C924        H928   1.083       .  S
C929        C930   1.402       .  A
C929        C934   1.395       .  A
C929        H939   1.083       .  S
C930        C935   1.472       .  S
C930        C931   1.405       .  A
C931        C932   1.392       .  A
C931        F936   1.358       .  S
C932        C933   1.403       .  A
C932        H937   1.083       .  S
C933        C934   1.408       .  A
C934        F938   1.357       .  S
C935        C940   1.405       .  A
C935        C944   1.399       .  A
C940        C941   1.398       .  A
C940        F945   1.358       .  S
C941        C942   1.406       .  A
C941        H946   1.083       .  S
C942        C943   1.411       .  A
C943        C944   1.390       .  A
C943        F947   1.358       .  S
C944        H948   1.084       .  S
C949        C950   1.406       .  A
C949        C954   1.395       .  A
C949        H959   1.082       .  S
C950        C955   1.483       .  S
C950        C951   1.407       .  A
C951        C952   1.395       .  A
C951        F956   1.358       .  S
C952        C953   1.405       .  A
C952        H957   1.083       .  S
C953        C954   1.405       .  A
C954        F958   1.357       .  S
C955        C960   1.408       .  A
C955        C964   1.408       .  A
C960        C961   1.392       .  A
C960        F965   1.357       .  S
C961        C962   1.400       .  A
C961        H966   1.083       .  S
C962        C963   1.404       .  A
C963        C964   1.398       .  A
C963        F967   1.358       .  S
C964        H968   1.082       .  S
C969        C970   1.405       .  A
C969        C974   1.399       .  A
C969        H979   1.083       .  S
C970        C975   1.486       .  S
C970        C971   1.407       .  A
C971        C972   1.399       .  A
C971        F976   1.358       .  S
C972        C973   1.407       .  A
C972        H977   1.083       .  S
C973        C974   1.409       .  A
C974        F978   1.357       .  S
C975        C980   1.407       .  A
C975        C984   1.404       .  A
C980        C981   1.398       .  A
C980        F985   1.357       .  S
C981        C982   1.407       .  A
C981        H986   1.083       .  S
C982        C983   1.412       .  A
C983        C984   1.398       .  A
C983        F987   1.357       .  S
C984        H988   1.083       .  S
C989        C990   1.407       .  A
C989        C994   1.401       .  A
C989        H999   1.083       .  S
C990        C995   1.490       .  S
C990        C991   1.409       .  A
C991        C992   1.398       .  A
C991        F996   1.357       .  S
C992        C993   1.405       .  A
C992        H997   1.083       .  S
C993        C994   1.407       .  A
C994        F998   1.357       .  S
C995       C1000   1.409       .  A
C995       C1004   1.406       .  A
C1000      C1001   1.400       .  A
C1000      F1005   1.357       .  S
C1001      C1002   1.404       .  A
C1001      H1006   1.083       .  S
C1002      C1003   1.407       .  A
C1003      C1004   1.399       .  A
C1003      F1007   1.357       .  S
C1004      H1008   1.083       .  S
