geometry optimzed in LAMMPS
_audit_creation_date              2020-12-01 
_audit_creation_method            'lammps2cif' 
_symmetry_space_group_name_H-M    'P1' 
_symmetry_Int_Tables_number       1 
_symmetry_cell_setting            triclinic 
loop_ 
_symmetry_equiv_pos_as_xyz 
  x,y,z 
_cell_length_a                    30.41968751 
_cell_length_b                    30.18297001324061 
_cell_length_c                    30.8148377127542 
_cell_angle_alpha                 90.60592292914758 
_cell_angle_beta                  89.76954338362 
_cell_angle_gamma                 120.0818577923122 
loop_ 
_atom_site_label 
_atom_site_type_symbol 
_atom_site_fract_x 
_atom_site_fract_y 
_atom_site_fract_z 
_atom_site_charge 
O1          O  0.77137919  0.15371489  0.30115990    -0.85200
O2          O  0.82936124  0.25694849  0.29045432    -0.82300
C3          C  0.86695479  0.30174480  0.29291041     0.98200
O4          O  0.91171665  0.30875229  0.29374485    -0.82300
O5          O  0.92520968  0.27696303  0.37407792    -0.85000
C6          C  0.91758872  0.24641657  0.40466484     1.02800
O7          O  0.89917570  0.19921005  0.39656087    -0.77700
O8          O  0.79932468  0.16074142  0.36780731    -0.77900
C9          C  0.76410200  0.15258759  0.34154588     1.02700
O10         O  0.83704393  0.13952890  0.24315553    -0.85200
O11         O  0.88639159  0.24196851  0.22426320    -0.82300
C12         C  0.93058551  0.24895312  0.21988188     0.98200
O13         O  0.95616288  0.25232917  0.25313773    -0.82300
O14         O  0.97368179  0.22618512  0.33333817    -0.84900
C15         C  0.96174651  0.17984973  0.32742461     1.02700
O16         O  0.91557488  0.14519092  0.32734004    -0.77700
O17         O  0.81500376  0.09877816  0.30488418    -0.77900
C18         C  0.82098056  0.09891546  0.26429057     1.02700
Cr19       Cr  0.83424663  0.19856604  0.26787930     1.93700
Cr20       Cr  0.93704211  0.26195692  0.31328670     1.93200
Cr21       Cr  0.85864361  0.15490673  0.34675916     1.39100
O22         O  0.87673675  0.20556068  0.30970384    -1.23000
O23         O  0.75373909  0.55979071  0.19385974    -0.85200
O24         O  0.67873824  0.55202509  0.14180083    -0.82300
C25         C  0.64248182  0.53530608  0.16892180     0.98200
O26         O  0.63881799  0.56542445  0.19543402    -0.82300
O27         O  0.66973706  0.64631410  0.25384797    -0.85000
C28         C  0.68612743  0.63206398  0.28550572     1.02800
O29         O  0.72349372  0.62574053  0.27975599    -0.77700
O30         O  0.80139133  0.61824157  0.24207331    -0.77900
C31         C  0.78385868  0.57400044  0.22541501     1.02700
O32         O  0.82759169  0.65489550  0.15564536    -0.85200
O33         O  0.75049042  0.65227837  0.10754233    -0.82300
C34         C  0.70899650  0.64791434  0.09599008     0.98200
O35         O  0.67355548  0.63463957  0.12348422    -0.82300
O36         O  0.71678924  0.71477067  0.18210694    -0.84900
C37         C  0.74664807  0.74421422  0.21094370     1.02700
O38         O  0.76129370  0.72634067  0.24126481    -0.77700
O39         O  0.83303749  0.71442486  0.20028697    -0.77900
C40         C  0.85245537  0.69966644  0.17169814     1.02700
Cr41       Cr  0.75151634  0.60725233  0.15252878     1.93700
Cr42       Cr  0.67861644  0.64009432  0.18905442     1.93200
Cr43       Cr  0.77660650  0.66870280  0.23771750     1.39100
O44         O  0.73581507  0.63854058  0.19318777    -1.23000
O45         O  0.38647003  0.08904233  0.30726218    -0.85200
O46         O  0.38663317  0.15530881  0.24782788    -0.82300
C47         C  0.37720508  0.17121428  0.21351521     0.98200
O48         O  0.33500848  0.14501141  0.19445776    -0.82300
O49         O  0.34294618  0.06552365  0.15918053    -0.85000
C50         C  0.34091523  0.02313769  0.15441679     1.02800
O51         O  0.32491704  0.99121084  0.18521345    -0.77700
O52         O  0.38950764  0.03911221  0.25681016    -0.77900
C53         C  0.40991424  0.06945408  0.28867261     1.02700
O54         O  0.28196071  0.05472193  0.32567327    -0.85200
O55         O  0.28420912  0.12814141  0.27205064    -0.82300
C56         C  0.24227969  0.10575358  0.25183283     0.98200
O57         O  0.23434149  0.07257516  0.22319749    -0.82300
O58         O  0.23888291  0.99482950  0.18151205    -0.84900
C59         C  0.21727830  0.95804393  0.20781689     1.02700
O60         O  0.23983371  0.95810443  0.24213980    -0.77700
O61         O  0.30340053  0.99655835  0.31394163    -0.77900
C62         C  0.28506855  0.01699062  0.33883058     1.02700
Cr63       Cr  0.33312429  0.10340892  0.28484228     1.93700
Cr64       Cr  0.28964725  0.06871609  0.19336504     1.93200
Cr65       Cr  0.31444048  0.00046893  0.24899131     1.39100
O66         O  0.31222103  0.05743829  0.24247059    -1.23000
O67         O  0.59325031  0.79538144  0.70179920    -0.85200
O68         O  0.54563183  0.69067203  0.70711638    -0.82300
C69         C  0.53862692  0.64583517  0.70357542     0.98200
O70         O  0.57619718  0.63854244  0.70524134    -0.82300
O71         O  0.62672527  0.67214297  0.62749089    -0.85000
C72         C  0.65076595  0.70372709  0.59782879     1.02800
O73         O  0.67796307  0.75086403  0.60666141    -0.77700
O74         O  0.61621301  0.78923657  0.63566570    -0.77900
C75         C  0.58890832  0.79793261  0.66144295     1.02700
O76         O  0.66763818  0.80432618  0.76260778    -0.85200
O77         O  0.61076032  0.69982181  0.77637794    -0.82300
C78         C  0.64653954  0.69097925  0.78211257     0.98200
O79         O  0.67363987  0.69255473  0.75048233    -0.82300
O80         O  0.72279987  0.72048512  0.67224436    -0.84900
C81         C  0.75736166  0.76680875  0.67703612     1.02700
O82         O  0.74601001  0.80171686  0.67746784    -0.77700
O83         O  0.69152296  0.84736933  0.70180048    -0.77900
C84         C  0.69489245  0.84560115  0.74264480     1.02700
Cr85       Cr  0.60730959  0.74713690  0.73388642     1.93700
Cr86       Cr  0.64942347  0.68513070  0.68925410     1.93200
Cr87       Cr  0.68013980  0.79334881  0.65774746     1.39100
O88         O  0.64563639  0.74162357  0.69326843    -1.23000
O89         O  0.27540825  0.86119842  0.69008777    -0.85200
O90         O  0.21063819  0.79456258  0.74995259    -0.82300
C91         C  0.18586076  0.77846167  0.78461493     0.98200
O92         O  0.17055311  0.80511452  0.80446421    -0.82300
O93         O  0.25647795  0.88880213  0.83702913    -0.85000
C94         C  0.29519176  0.93256349  0.84052940     1.02800
O95         O  0.30870331  0.96338686  0.80909275    -0.77700
O96         O  0.32695867  0.91361918  0.74008285    -0.77900
C97         C  0.31801538  0.88231770  0.70922114     1.02700
O98         O  0.20161495  0.89148226  0.67107619    -0.85200
O99         O  0.13296798  0.81823906  0.72578350    -0.82300
C100        C  0.11229115  0.83976930  0.74603580     0.98200
O101        O  0.13654385  0.87306743  0.77476276    -0.82300
O102        O  0.21768623  0.95467639  0.81311394    -0.84900
C103        C  0.23206101  0.99088594  0.78624579     1.02700
O104        O  0.25317099  0.99005299  0.75115942    -0.77700
O105        O  0.28052026  0.95117558  0.68068558    -0.77900
C106        C  0.24103779  0.93001908  0.65706797     1.02700
Cr107      Cr  0.20684995  0.84490285  0.71247766     1.93700
Cr108      Cr  0.19779755  0.88106772  0.80360731     1.93200
Cr109      Cr  0.28822286  0.95016365  0.74579621     1.39100
O110        O  0.23073796  0.89202714  0.75394258    -1.23000
O111        O  0.16821761  0.38900361  0.80000365    -0.85200
O112        O  0.10210162  0.39617984  0.85487634    -0.82300
C113        C  0.07755051  0.40875574  0.82935849     0.98200
O114        O  0.04296546  0.37539999  0.80563658    -0.82300
O115        O  0.99581098  0.29307505  0.74974636    -0.85000
C116        C  0.02470415  0.30769875  0.71678409     1.02800
O117        O  0.06943015  0.31598101  0.72044495    -0.77700
O118        O  0.15896176  0.32844545  0.75490542    -0.77900
C119        C  0.18487894  0.37381608  0.76942929     1.02700
O120        O  0.15409179  0.29779079  0.84208103    -0.85200
O121        O  0.08270893  0.30090107  0.89437286    -0.82300
C122        C  0.04338316  0.30111017  0.90668821     0.98200
O123        O  0.01751603  0.30959310  0.87932405    -0.82300
O124        O  0.98153901  0.22711203  0.82220206    -0.84900
C125        C  0.98060590  0.19812991  0.79197825     1.02700
O126        O  0.01268320  0.21671297  0.76137087    -0.77700
O127        O  0.09921143  0.23459106  0.80076250    -0.77900
C128        C  0.13421524  0.25195159  0.82848473     1.02700
Cr129      Cr  0.12301464  0.34316728  0.84504424     1.93700
Cr130      Cr  0.01376474  0.30163726  0.81387186     1.93200
Cr131      Cr  0.08442835  0.27652673  0.76255789     1.39100
O132        O  0.07402561  0.30720611  0.80721058    -1.23000
C133        C  0.11717789  0.64572282  0.83551495    -0.22300
C134        C  0.14456650  0.62425059  0.81741892     0.09600
C135        C  0.18809887  0.65464572  0.79232505     0.10000
C136        C  0.20195326  0.70557369  0.78412739    -0.17300
C137        C  0.17305683  0.72685756  0.80018993    -0.27700
C138        C  0.13089813  0.69677247  0.82752210     0.18400
C139        C  0.12496275  0.56888110  0.82253521     0.12300
C140        C  0.21937507  0.63303149  0.77360339    -0.12000
H141        H  0.23487651  0.72844580  0.76407665     0.12600
C142        C  0.09888705  0.71699817  0.84721115    -0.22900
H143        H  0.08394214  0.62179490  0.85502858     0.08200
C144        C  0.13609073  0.54915836  0.85939106     0.04600
C145        C  0.11877718  0.49652752  0.86130155    -0.20100
C146        C  0.09007858  0.46303894  0.82727713    -0.12400
C147        C  0.07712264  0.48306325  0.79100268     0.13300
C148        C  0.09506512  0.53579301  0.78921900    -0.22800
C149        C  0.16679784  0.58383064  0.89632677    -0.05900
H150        H  0.12826175  0.48165771  0.88935332     0.14800
C151        C  0.04572556  0.45009382  0.75333716    -0.16100
H152        H  0.08637978  0.55165887  0.76130412     0.09100
H153        H  0.06721845  0.68761233  0.86693645     0.07000
H154        H  0.08193042  0.72889435  0.82120206     0.08200
H155        H  0.12258500  0.74998698  0.86900518     0.07200
H156        H  0.19576554  0.60069526  0.75119376     0.02100
H157        H  0.23368831  0.61907899  0.80020657     0.02600
H158        H  0.25260013  0.66220569  0.75515756     0.06100
H159        H  0.17222399  0.56226285  0.92273305     0.05100
H160        H  0.14699020  0.60322326  0.91012931    -0.00700
H161        H  0.20481014  0.61316358  0.88443190     0.00800
H162        H  0.00722896  0.42131320  0.76473668     0.04500
H163        H  0.06469270  0.43065549  0.73795645     0.06400
H164        H  0.04068525  0.47295523  0.72786956     0.07300
C165        C  0.14093171  0.13238996  0.84269117    -0.22300
C166        C  0.19300142  0.15182487  0.83699361     0.09600
C167        C  0.22663015  0.20516494  0.83744467     0.10000
C168        C  0.20672028  0.23820544  0.84041614    -0.17300
C169        C  0.15397921  0.21849389  0.84155507    -0.27700
C170        C  0.12087816  0.16499792  0.84532794     0.18400
C171        C  0.20964517  0.11523901  0.82475031     0.12300
C172        C  0.28297073  0.22691935  0.83227218    -0.12000
H173        H  0.23198033  0.27912293  0.83771142     0.12600
C174        C  0.06406806  0.14091202  0.85036977    -0.22900
H175        H  0.11538356  0.09118427  0.84291248     0.08200
C176        C  0.21831310  0.08687670  0.85600987     0.04600
C177        C  0.22659279  0.04729635  0.84224697    -0.20100
C178        C  0.22616017  0.03531279  0.79789836    -0.12400
C179        C  0.21854051  0.06481180  0.76653381     0.13300
C180        C  0.21043085  0.10447963  0.78052346    -0.22800
C181        C  0.21797972  0.09788043  0.90375981    -0.05900
H182        H  0.23282784  0.02517037  0.86639663     0.14800
C183        C  0.21644898  0.05347193  0.71857030    -0.16100
H184        H  0.20293137  0.12628625  0.75689594     0.09100
H185        H  0.05121600  0.11473926  0.87854743     0.07000
H186        H  0.04476660  0.11848167  0.82064655     0.08200
H187        H  0.05192108  0.16942812  0.85655798     0.07200
H188        H  0.29095534  0.21448273  0.80062527     0.02100
H189        H  0.29747858  0.21316623  0.85885894     0.02600
H190        H  0.30388366  0.26943616  0.83333595     0.06100
H191        H  0.22573272  0.07221482  0.92386926     0.05100
H192        H  0.18028563  0.09229099  0.91319238    -0.00700
H193        H  0.24764169  0.13802285  0.91100604     0.00800
H194        H  0.20718086  0.07862581  0.69929104     0.04500
H195        H  0.18673933  0.01316932  0.71186240     0.06400
H196        H  0.25390038  0.06004609  0.70730307     0.07300
C197        C  0.81046825  0.94750974  0.80283502    -0.22300
C198        C  0.80978211  0.99131867  0.78925597     0.09600
C199        C  0.76701268  0.98618578  0.76709717     0.10000
C200        C  0.72784364  0.93726248  0.75545246    -0.17300
C201        C  0.73017745  0.89333346  0.76581976    -0.27700
C202        C  0.77098467  0.89827679  0.79154083     0.18400
C203        C  0.85652620  0.04189147  0.79285182     0.12300
C204        C  0.76364381  0.03248518  0.75438775    -0.12000
H205        H  0.69628812  0.93336026  0.73620191     0.12600
C206        C  0.77621244  0.85333251  0.80527680    -0.22900
H207        H  0.84332655  0.95182382  0.82024796     0.08200
C208        C  0.86761969  0.07336946  0.82983915     0.04600
C209        C  0.90933585  0.12341166  0.82900062    -0.20100
C210        C  0.94008716  0.14302061  0.79174087    -0.12400
C211        C  0.92979495  0.10999605  0.75523460     0.13300
C212        C  0.88825536  0.05992848  0.75653377    -0.22800
C213        C  0.83472851  0.05447113  0.86968729    -0.05900
H214        H  0.91715816  0.14762310  0.85743896     0.14800
C215        C  0.96089409  0.12684627  0.71417941    -0.16100
H216        H  0.87924643  0.03498263  0.72838776     0.09100
H217        H  0.77713544  0.85227513  0.84126945     0.07000
H218        H  0.81220916  0.85754804  0.79231934     0.08200
H219        H  0.74495810  0.81605869  0.79371014     0.07200
H220        H  0.79523915  0.05687496  0.73214630     0.02100
H221        H  0.76605134  0.05506220  0.78387211     0.02600
H222        H  0.72729204  0.02155833  0.73761463     0.06100
H223        H  0.84859887  0.08398978  0.89587127     0.05100
H224        H  0.83472259  0.02013880  0.88227896    -0.00700
H225        H  0.79520811  0.04418503  0.86146658     0.00800
H226        H  0.00089433  0.13802793  0.72137558     0.04500
H227        H  0.95909292  0.15944868  0.69973549     0.06400
H228        H  0.94666215  0.09574693  0.68934950     0.07300
C229        C  0.42253351  0.51054949  0.69999029    -0.22300
C230        C  0.38351894  0.52174498  0.70615367     0.09600
C231        C  0.39485488  0.57306208  0.70644148     0.10000
C232        C  0.44550324  0.61233149  0.70313826    -0.17300
C233        C  0.48560982  0.60176488  0.70042831    -0.27700
C234        C  0.47354094  0.54977637  0.69696598     0.18400
C235        C  0.33308347  0.48045624  0.72029923     0.12300
C236        C  0.35360667  0.58646029  0.71202376    -0.12000
H237        H  0.45370400  0.65162416  0.70461576     0.12600
C238        C  0.51353360  0.53463133  0.69112705    -0.22900
H239        H  0.41317189  0.47084280  0.69980260     0.08200
C240        C  0.29316769  0.45061979  0.69112310     0.04600
C241        C  0.24509019  0.41484824  0.70765591    -0.20100
C242        C  0.23644234  0.40904787  0.75264653    -0.12400
C243        C  0.27744043  0.43773945  0.78158344     0.13300
C244        C  0.32509240  0.47291596  0.76494132    -0.22800
C245        C  0.30138883  0.45703220  0.64288570    -0.05900
H246        H  0.21389397  0.39240052  0.68550713     0.14800
C247        C  0.27177056  0.43078338  0.83011169    -0.16100
H248        H  0.35636934  0.49563753  0.78698479     0.09100
H249        H  0.49648152  0.49255225  0.68713981     0.07000
H250        H  0.53861645  0.54628100  0.72008454     0.08200
H251        H  0.53624184  0.55280207  0.66156654     0.07200
H252        H  0.33412254  0.57202239  0.74357967     0.02100
H253        H  0.32546646  0.56882673  0.68534863     0.02600
H254        H  0.36899830  0.62849572  0.71141227     0.06100
H255        H  0.26625990  0.43087493  0.62456197     0.05100
H256        H  0.33156168  0.44848695  0.63312323    -0.00700
H257        H  0.31323752  0.49697932  0.63384620     0.00800
H258        H  0.25680634  0.38989860  0.83808686     0.04500
H259        H  0.24573956  0.44355371  0.84283855     0.06400
H260        H  0.30867859  0.45365262  0.84720153     0.07300
C261        C  0.52305606  0.87396288  0.65717243    -0.22300
C262        C  0.47238009  0.83424516  0.65632165     0.09600
C263        C  0.46122353  0.78375048  0.64698700     0.10000
C264        C  0.50136148  0.77357930  0.64213418    -0.17300
C265        C  0.55214981  0.81278098  0.64687619    -0.27700
C266        C  0.56307526  0.86380904  0.65290835     0.18400
C267        C  0.43236234  0.84584886  0.66998961     0.12300
C268        C  0.40711408  0.74029341  0.64493180    -0.12000
H269        H  0.49297119  0.73434807  0.63867589     0.12600
C270        C  0.61656186  0.90789269  0.65801439    -0.22900
H271        H  0.53147228  0.91277856  0.66397388     0.08200
C272        C  0.42341201  0.85050917  0.71439179     0.04600
C273        C  0.38640356  0.86316940  0.72621622    -0.20100
C274        C  0.35759309  0.87057525  0.69470419    -0.12400
C275        C  0.36677028  0.86606601  0.65014493     0.13300
C276        C  0.40414584  0.85378668  0.63840350    -0.22800
C277        C  0.45258606  0.84155115  0.74929046    -0.05900
H278        H  0.37929599  0.86644818  0.76029909     0.14800
C279        C  0.33873906  0.87599692  0.61477387    -0.16100
H280        H  0.41166396  0.85062173  0.60444353     0.09100
H281        H  0.62138399  0.92512374  0.69091018     0.07000
H282        H  0.62382447  0.93743824  0.63344777     0.08200
H283        H  0.64550229  0.89617772  0.65347950     0.07200
H284        H  0.38647455  0.74737790  0.61875750     0.02100
H285        H  0.38790606  0.73721056  0.67639854     0.02600
H286        H  0.40504824  0.70309099  0.63807126     0.06100
H287        H  0.44033630  0.84593383  0.78229579     0.05100
H288        H  0.49376383  0.86953077  0.74620673    -0.00700
H289        H  0.44637255  0.80213609  0.74611649     0.00800
H290        H  0.35331595  0.87429023  0.58206476     0.04500
H291        H  0.34340528  0.91469922  0.61922248     0.06400
H292        H  0.29778495  0.84669260  0.61546520     0.07300
C293        C  0.90229821  0.83686487  0.69294842    -0.22300
C294        C  0.91013361  0.79535847  0.69858788     0.09600
C295        C  0.86866155  0.74511579  0.69557398     0.10000
C296        C  0.81993562  0.73744614  0.68762217    -0.17300
C297        C  0.81115251  0.77883702  0.68278172    -0.27700
C298        C  0.85349835  0.82950194  0.68510222     0.18400
C299        C  0.96166457  0.80549115  0.71014569     0.12300
C300        C  0.87570958  0.69953697  0.70145723    -0.12000
H301        H  0.78836369  0.69853901  0.68602769     0.12600
C302        C  0.84830537  0.87625266  0.67957791    -0.22900
H303        H  0.93461545  0.87532253  0.69538938     0.08200
C304        C  0.99681962  0.80938555  0.67830158     0.04600
C305        C  0.04509135  0.81898607  0.69118352    -0.20100
C306        C  0.05961871  0.82650465  0.73510180    -0.12400
C307        C  0.02428523  0.82295789  0.76699342     0.13300
C308        C  0.97557485  0.81193449  0.75403156    -0.22800
C309        C  0.98380688  0.80457907  0.63074482    -0.05900
H310        H  0.07220496  0.82228055  0.66672353     0.14800
C311        C  0.03711211  0.82977373  0.81470670    -0.16100
H312        H  0.94818833  0.80883839  0.77822957     0.09100
H313        H  0.88567224  0.91218103  0.68113242     0.07000
H314        H  0.82436753  0.87836334  0.70588424     0.08200
H315        H  0.83122470  0.87479709  0.64744300     0.07200
H316        H  0.89168462  0.70110781  0.73413535     0.02100
H317        H  0.90210933  0.69963305  0.67646125     0.02600
H318        H  0.83922998  0.66283933  0.69840474     0.06100
H319        H  0.01584692  0.80917565  0.61013845     0.05100
H320        H  0.97475463  0.83463351  0.62170027    -0.00700
H321        H  0.95042983  0.76638454  0.62368678     0.00800
H322        H  0.00386432  0.82248322  0.83493428     0.04500
H323        H  0.06766712  0.86963370  0.82153263     0.06400
H324        H  0.04962043  0.80258603  0.82472533     0.07300
C325        C  0.28159744  0.00517897  0.55069341    -0.22300
C326        C  0.24485224  0.96980257  0.52203078     0.09600
C327        C  0.20491813  0.92357198  0.53823400     0.10000
C328        C  0.20363595  0.91288852  0.58263059    -0.17300
C329        C  0.24189196  0.94699547  0.61145669    -0.27700
C330        C  0.28085911  0.99451697  0.59513226     0.18400
C331        C  0.25188704  0.97972909  0.47469178     0.12300
C332        C  0.16434131  0.88499681  0.50839497    -0.12000
H333        H  0.17337091  0.87659402  0.59445111     0.12600
C334        C  0.32209356  0.03427584  0.62381040    -0.22900
H335        H  0.31207017  0.04072520  0.53782588     0.08200
C336        C  0.23269959  0.00727744  0.45291878     0.04600
C337        C  0.24219737  0.01675385  0.40828567    -0.20100
C338        C  0.27116084  0.99997758  0.38478033    -0.12400
C339        C  0.28997045  0.97180715  0.40707112     0.13300
C340        C  0.27976952  0.96197023  0.45154802    -0.22800
C341        C  0.20303633  0.02740712  0.47698391    -0.05900
H342        H  0.22769675  0.03843580  0.39188283     0.14800
C343        C  0.32235503  0.95329590  0.38519822    -0.16100
H344        H  0.29444368  0.94101262  0.46875825     0.09100
H345        H  0.34698199  0.07009718  0.60594625     0.07000
H346        H  0.34663684  0.01968063  0.63612862     0.08200
H347        H  0.30489943  0.04418769  0.65135593     0.07200
H348        H  0.18181270  0.87218438  0.48317380     0.02100
H349        H  0.14422611  0.90255977  0.49239167     0.02600
H350        H  0.13579947  0.85072161  0.52622121     0.06100
H351        H  0.19078409  0.04828909  0.45517127     0.05100
H352        H  0.22694812  0.05418831  0.50311757    -0.00700
H353        H  0.16859010  0.99518882  0.49162630     0.00800
H354        H  0.35736078  0.98627861  0.37199266     0.04500
H355        H  0.30052622  0.92582104  0.35872872     0.06400
H356        H  0.33437641  0.93320176  0.40810539     0.09700
C357        C  0.34166188  0.93298322  0.95470620    -0.22300
C358        C  0.33980858  0.97484398  0.97299274     0.09600
C359        C  0.32997951  0.00636147  0.94572193     0.10000
C360        C  0.32072558  0.99423080  0.90132370    -0.17300
C361        C  0.31901489  0.95028453  0.88373104    -0.27700
C362        C  0.33088264  0.92000110  0.91054084     0.18400
C363        C  0.34449634  0.98297763  0.02098863     0.12300
C364        C  0.32586351  0.05082037  0.96371493    -0.12000
H365        H  0.31106168  0.01710901  0.88086402     0.12600
C366        C  0.33218850  0.87367438  0.89359326    -0.22900
H367        H  0.35014574  0.90934271  0.97532971     0.08200
C368        C  0.30613827  0.94854486  0.04937910     0.04600
C369        C  0.30891063  0.96084955  0.09375149    -0.20100
C370        C  0.34805956  0.00750718  0.11036321    -0.12400
C371        C  0.38765244  0.04088125  0.08239170     0.13300
C372        C  0.38583675  0.02770633  0.03819748    -0.22800
C373        C  0.26055713  0.90025779  0.03271549    -0.05900
H374        H  0.27827800  0.93552206  0.11503747     0.14800
C375        C  0.43172696  0.09038391  0.09891927    -0.16100
H376        H  0.41572212  0.05345440  0.01655129     0.09100
H377        H  0.30198294  0.83878548  0.90955948     0.07000
H378        H  0.36968128  0.87763336  0.90104559     0.08200
H379        H  0.32677222  0.86868547  0.85794696     0.07200
H380        H  0.36279410  0.08017109  0.97764747     0.02100
H381        H  0.29623696  0.03719521  0.98931691     0.02600
H382        H  0.31529096  0.06955867  0.93821713     0.06100
H383        H  0.23304660  0.87923477  0.05904184     0.05100
H384        H  0.27265077  0.87419032  0.01843614    -0.00700
H385        H  0.24059194  0.90986945  0.00768782     0.00800
H386        H  0.46035704  0.11052551  0.07312230     0.04500
H387        H  0.45071341  0.08243920  0.12596963     0.06400
H388        H  0.41838614  0.11654687  0.11051362     0.07300
C389        C  0.62629917  0.64273833  0.89776434    -0.22300
C390        C  0.67481634  0.67386125  0.91542670     0.09600
C391        C  0.71502712  0.70740769  0.88803646     0.10000
C392        C  0.70533854  0.70977905  0.84380662    -0.17300
C393        C  0.65631799  0.67999819  0.82650512    -0.27700
C394        C  0.61645791  0.64528402  0.85372261     0.18400
C395        C  0.68315663  0.66830922  0.96205838     0.12300
C396        C  0.76776304  0.74197837  0.90560952    -0.12000
H397        H  0.73572874  0.73636731  0.82301270     0.12600
C398        C  0.56338725  0.60934428  0.83735488    -0.22900
H399        H  0.59591026  0.61577340  0.91845274     0.08200
C400        C  0.66165109  0.68348162  0.99576209     0.04600
C401        C  0.67059931  0.67644155  0.03923798    -0.20100
C402        C  0.70097653  0.65514568  0.04974005    -0.12400
C403        C  0.72183791  0.63936539  0.01572135     0.13300
C404        C  0.71224594  0.64583151  0.97250664    -0.22800
C405        C  0.63002629  0.70780234  0.98598443    -0.05900
H406        H  0.65428514  0.68814914  0.06516499     0.14800
C407        C  0.75277722  0.61390326  0.02431946    -0.16100
H408        H  0.72739417  0.63302353  0.94648117     0.09100
H409        H  0.53629543  0.61882355  0.85331032     0.07000
H410        H  0.55252907  0.56937328  0.84545693     0.08200
H411        H  0.55957655  0.61055356  0.80172258     0.07200
H412        H  0.78396389  0.71888399  0.91814986     0.02100
H413        H  0.76634038  0.76630422  0.93223310     0.02600
H414        H  0.79384658  0.76758768  0.88018604     0.06100
H415        H  0.61770852  0.71896480  0.01613534     0.05100
H416        H  0.59538622  0.68054415  0.96771562    -0.00700
H417        H  0.65251998  0.74275438  0.96638588     0.00800
H418        H  0.76276554  0.60104823  0.99383551     0.04500
H419        H  0.73077578  0.57969047  0.04488483     0.06400
H420        H  0.78897269  0.64121093  0.04065959     0.07300
C421        C  0.69063145  0.68958940  0.48347979    -0.22300
C422        C  0.64397332  0.65474692  0.46450296     0.09600
C423        C  0.59941034  0.63381367  0.48996314     0.10000
C424        C  0.60250232  0.64951242  0.53370464    -0.17300
C425        C  0.64912835  0.68601761  0.55229309    -0.27700
C426        C  0.69390957  0.70553953  0.52687208     0.18400
C427        C  0.64407132  0.64147267  0.41784781     0.12300
C428        C  0.54887466  0.59480601  0.47108844    -0.12000
H429        H  0.56831967  0.63401176  0.55319074     0.12600
C430        C  0.74568308  0.74213135  0.54546766    -0.22900
H431        H  0.72475845  0.70476199  0.46392664     0.08200
C432        C  0.63818337  0.67005272  0.38472872     0.04600
C433        C  0.64817382  0.66288563  0.34139228    -0.20100
C434        C  0.66609842  0.62937728  0.33034541    -0.12400
C435        C  0.66995575  0.59915481  0.36358786     0.13300
C436        C  0.65837403  0.60534180  0.40671988    -0.22800
C437        C  0.62428346  0.71033977  0.39535499    -0.05900
H438        H  0.64532053  0.68632845  0.31641527     0.14800
C439        C  0.68687217  0.56080515  0.35437720    -0.16100
H440        H  0.66313871  0.58377775  0.43240889     0.09100
H441        H  0.77649526  0.75023873  0.52190790     0.07000
H442        H  0.75252003  0.72538237  0.57481965     0.08200
H443        H  0.74844121  0.77924107  0.55396341     0.07200
H444        H  0.55065198  0.56069524  0.45979126     0.02100
H445        H  0.53915809  0.61122897  0.44320374     0.02600
H446        H  0.51789905  0.58216994  0.49537749     0.06100
H447        H  0.62228265  0.72995111  0.36576146     0.05100
H448        H  0.65324709  0.73971921  0.41738758    -0.00700
H449        H  0.58666619  0.69264818  0.41143555     0.00800
H450        H  0.72715714  0.58057114  0.34394666     0.04500
H451        H  0.66252226  0.53351613  0.32882607     0.06400
H452        H  0.68399454  0.53828325  0.38361999     0.07300
C453        C  0.44249447  0.30624568  0.16884417    -0.22300
C454        C  0.49358173  0.32009752  0.17397887     0.09600
C455        C  0.50611152  0.28368847  0.18870968     0.10000
C456        C  0.46704612  0.23464940  0.19958290    -0.17300
C457        C  0.41582763  0.22132389  0.19642602    -0.27700
C458        C  0.40326759  0.25721934  0.18003023     0.18400
C459        C  0.53261640  0.37477994  0.17080153     0.12300
C460        C  0.56063780  0.29685607  0.19382291    -0.12000
H461        H  0.47655490  0.20688805  0.21173262     0.12600
C462        C  0.34899114  0.24545517  0.17698811    -0.22900
H463        H  0.43338443  0.33480754  0.15823701     0.08200
C464        C  0.54895530  0.40032643  0.13082293     0.04600
C465        C  0.58513669  0.45291351  0.13080300    -0.20100
C466        C  0.60442775  0.48019376  0.16993965    -0.12400
C467        C  0.58833026  0.45401609  0.20982857     0.13300
C468        C  0.55237340  0.40182787  0.20964856    -0.22800
C469        C  0.52860217  0.37204165  0.08849199    -0.05900
H470        H  0.59794315  0.47291306  0.10026227     0.14800
C471        C  0.61028180  0.48021964  0.25271366    -0.16100
H472        H  0.53940810  0.38170862  0.24018856     0.09100
H473        H  0.32765882  0.21368724  0.15346730     0.07000
H474        H  0.34656474  0.27900256  0.16574113     0.08200
H475        H  0.33064542  0.23452660  0.20937287     0.07200
H476        H  0.58014254  0.32782552  0.21836827     0.02100
H477        H  0.58061364  0.30972488  0.16226847     0.02600
H478        H  0.56350930  0.26340545  0.20465935     0.06100
H479        H  0.54598805  0.39758836  0.06024153     0.05100
H480        H  0.48688213  0.35602960  0.08688754    -0.00700
H481        H  0.53699817  0.34030357  0.08584934     0.00800
H482        H  0.59958828  0.50975341  0.25949367     0.04500
H483        H  0.65231214  0.49825539  0.25198270     0.06400
H484        H  0.59600446  0.45284275  0.28007407     0.07300
C485        C  0.97911505  0.82093198  0.16045172    -0.22300
C486        C  0.01222121  0.80156374  0.16342479     0.09600
C487        C  0.99260406  0.74815054  0.16171479     0.10000
C488        C  0.93969233  0.71508324  0.15992313    -0.17300
C489        C  0.90628855  0.73452331  0.16039647    -0.27700
C490        C  0.92647152  0.78821539  0.15842383     0.18400
C491        C  0.06634146  0.83808648  0.17313255     0.12300
C492        C  0.02744537  0.72623814  0.16319271    -0.12000
H493        H  0.92438291  0.67404914  0.16133576     0.12600
C494        C  0.89369406  0.81245668  0.15483108    -0.22900
H495        H  0.99443626  0.86204629  0.16120252     0.08200
C496        C  0.10011243  0.87047463  0.14124200     0.04600
C497        C  0.14949947  0.90797631  0.15342271    -0.20100
C498        C  0.16573510  0.91473133  0.19702113    -0.12400
C499        C  0.13144718  0.88186422  0.22894766     0.13300
C500        C  0.08242210  0.84375897  0.21639446    -0.22800
C501        C  0.08383131  0.86578723  0.09451682    -0.05900
H502        H  0.17531342  0.93272966  0.12867616     0.14800
C503        C  0.14484278  0.88786814  0.27654417    -0.16100
H504        H  0.05572320  0.81923236  0.24068380     0.09100
H505        H  0.90621108  0.83855584  0.12660727     0.07000
H506        H  0.89749820  0.83495918  0.18475195     0.08200
H507        H  0.85308864  0.78405515  0.14955659     0.07200
H508        H  0.04941862  0.73769164  0.19396164     0.02100
H509        H  0.05419465  0.74078448  0.13539387     0.02600
H510        H  0.00597782  0.68374663  0.16126828     0.06100
H511        H  0.11511114  0.89378409  0.07363227     0.05100
H512        H  0.05155764  0.87296172  0.09178038    -0.00700
H513        H  0.07185571  0.82668299  0.08211786     0.00800
H514        H  0.15579098  0.92716614  0.28779000     0.04500
H515        H  0.17655843  0.88041263  0.28217399     0.06400
H516        H  0.11234686  0.86050854  0.29671927     0.07300
C517        C  0.95249594  0.32398243  0.51164473    -0.22300
C518        C  0.96118764  0.29188879  0.53858586     0.09600
C519        C  0.95607830  0.24611243  0.52136089     0.10000
C520        C  0.94173995  0.23296755  0.47794858    -0.17300
C521        C  0.93275601  0.26456674  0.45043678    -0.27700
C522        C  0.93855028  0.31107250  0.46762486     0.18400
C523        C  0.97648008  0.30608317  0.58473212     0.12300
C524        C  0.96656441  0.21125822  0.54872112    -0.12000
H525        H  0.93825237  0.19771229  0.46530540     0.12600
C526        C  0.92934816  0.34675224  0.44031715    -0.22900
H527        H  0.95680432  0.35927640  0.52511963     0.08200
C528        C  0.02802670  0.33581441  0.59660981     0.04600
C529        C  0.04203194  0.33845557  0.64038983    -0.20100
C530        C  0.00584024  0.31121192  0.67283760    -0.12400
C531        C  0.95361447  0.28380667  0.66096472     0.13300
C532        C  0.93978161  0.28208560  0.61714510    -0.22800
C533        C  0.06847562  0.36264591  0.56271368    -0.05900
H534        H  0.08194929  0.36015254  0.64894893     0.14800
C535        C  0.91220623  0.25359230  0.69335670    -0.16100
H536        H  0.90027964  0.25907483  0.60760718     0.09100
H537        H  0.93358446  0.38002220  0.45953226     0.07000
H538        H  0.89019041  0.32608753  0.42687717     0.08200
H539        H  0.95727558  0.36191196  0.41340546     0.07200
H540        H  0.94019857  0.19730575  0.57677512     0.02100
H541        H  0.00631787  0.23240272  0.56078743     0.02600
H542        H  0.96145743  0.17732546  0.53003596     0.06100
H543        H  0.10701540  0.38404194  0.57733384     0.05100
H544        H  0.06130987  0.39028460  0.54505114    -0.00700
H545        H  0.06796792  0.33420151  0.53926766     0.00800
H546        H  0.87400720  0.23405912  0.67798747     0.04500
H547        H  0.91204800  0.27960085  0.71901498     0.06400
H548        H  0.91823186  0.22361792  0.70807155     0.07300
C549        C  0.99495353  0.31110325  0.01926761    -0.22300
C550        C  0.00887749  0.28145862  0.04408690     0.09600
C551        C  0.03326754  0.25752746  0.02373336     0.10000
C552        C  0.04393882  0.26457919  0.97900944    -0.17300
C553        C  0.02948701  0.29384338  0.95369947    -0.27700
C554        C  0.00473891  0.31757996  0.97444715     0.18400
C555        C  0.99208160  0.27161854  0.09010375     0.12300
C556        C  0.04692933  0.22365036  0.04900698    -0.12000
H557        H  0.06295644  0.24634100  0.96356158     0.12600
C558        C  0.98941516  0.35078697  0.95008787    -0.22900
H559        H  0.97551469  0.32865616  0.03509034     0.08200
C560        C  0.02260499  0.30226972  0.12494610     0.04600
C561        C  0.00243092  0.29301090  0.16734788    -0.20100
C562        C  0.95206430  0.25448539  0.17542949    -0.12400
C563        C  0.92225527  0.22294609  0.14031662     0.13300
C564        C  0.94269400  0.23213218  0.09833679    -0.22800
C565        C  0.07581545  0.34547141  0.11718416    -0.05900
H566        H  0.02543876  0.31706731  0.19399128     0.14800
C567        C  0.86949022  0.17810878  0.14661447    -0.16100
H568        H  0.91973884  0.20854934  0.07138432     0.09100
H569        H  0.97282195  0.36803236  0.97197142     0.07000
H570        H  0.96019453  0.32752817  0.92537812     0.08200
H571        H  0.02315986  0.38254640  0.93414538     0.07200
H572        H  0.01207570  0.19131758  0.06308615     0.02100
H573        H  0.07358816  0.24588728  0.07564583     0.02600
H574        H  0.06539941  0.20746245  0.02813329     0.06100
H575        H  0.09433592  0.36599992  0.14780625     0.05100
H576        H  0.07494267  0.37340376  0.09456496    -0.00700
H577        H  0.09924724  0.33038840  0.10280787     0.00800
H578        H  0.84359679  0.19097644  0.15945245     0.04500
H579        H  0.87128961  0.15052942  0.16891514     0.06400
H580        H  0.85273917  0.15732239  0.11565797     0.07300
C581        C  0.83173465  0.48037730  0.22741364    -0.22300
C582        C  0.82443589  0.46600191  0.27097584     0.09600
C583        C  0.80651353  0.48933863  0.30053247     0.10000
C584        C  0.79480770  0.52593951  0.28526429    -0.17300
C585        C  0.80029968  0.53884000  0.24118493    -0.27700
C586        C  0.81977130  0.51641463  0.21201328     0.18400
C587        C  0.83389381  0.42452127  0.28350315     0.12300
C588        C  0.79969848  0.47550238  0.34783939    -0.12000
H589        H  0.78006900  0.54345463  0.30743707     0.12600
C590        C  0.82890014  0.53094222  0.16475863    -0.22900
H591        H  0.84592958  0.46234729  0.20515054     0.08200
C592        C  0.79500816  0.37303339  0.28039422     0.04600
C593        C  0.80701024  0.33437023  0.28570631    -0.20100
C594        C  0.85746706  0.34564590  0.29222880    -0.12400
C595        C  0.89647181  0.39781420  0.29584217     0.13300
C596        C  0.88386302  0.43646250  0.29181793    -0.22800
C597        C  0.74121436  0.35880763  0.26925927    -0.05900
H598        H  0.77665847  0.29494331  0.28285212     0.14800
C599        C  0.95150881  0.41373252  0.30276017    -0.16100
H600        H  0.91343884  0.47635412  0.29321334     0.09100
H601        H  0.79239192  0.51928876  0.14809137     0.07000
H602        H  0.84716474  0.51185388  0.14753563     0.08200
H603        H  0.85436515  0.57294922  0.16192978     0.07200
H604        H  0.83667765  0.48404442  0.36196772     0.02100
H605        H  0.77200480  0.43413439  0.35164011     0.02600
H606        H  0.78547006  0.49747647  0.36645674     0.06100
H607        H  0.71565698  0.31666549  0.26731191     0.05100
H608        H  0.74039776  0.37495867  0.23726497    -0.00700
H609        H  0.72596545  0.37410179  0.29432694     0.00800
H610        H  0.96571006  0.40110903  0.27473548     0.04500
H611        H  0.95576038  0.39687714  0.33319397     0.06400
H612        H  0.97594332  0.45597737  0.30561908     0.07300
C613        C  0.75407192  0.96080498  0.22846576    -0.22300
C614        C  0.79602352  0.95511890  0.21875737     0.09600
C615        C  0.84518834  0.99842339  0.21778232     0.10000
C616        C  0.85164689  0.04639598  0.22918907    -0.17300
C617        C  0.81014651  0.05127881  0.24245697    -0.27700
C618        C  0.76057078  0.00848095  0.24077765     0.18400
C619        C  0.78795018  0.90278031  0.21588179     0.12300
C620        C  0.89085071  0.99354455  0.20672257    -0.12000
H621        H  0.88955803  0.07955392  0.23062076     0.12600
C622        C  0.71407887  0.01153761  0.25276122    -0.22900
H623        H  0.71635096  0.92731468  0.22884630     0.08200
C624        C  0.78811780  0.87709318  0.25373901     0.04600
C625        C  0.77568497  0.82583199  0.25078623    -0.20100
C626        C  0.76251260  0.79935453  0.21089533    -0.12400
C627        C  0.76468697  0.82612391  0.17248206     0.13300
C628        C  0.77724077  0.87762723  0.17565078    -0.22800
C629        C  0.80050734  0.90360085  0.29744304    -0.05900
H630        H  0.77482273  0.80594291  0.28013810     0.14800
C631        C  0.75465381  0.80143398  0.12802165    -0.16100
H632        H  0.77786449  0.89817777  0.14681695     0.09100
H633        H  0.69456574  0.98576766  0.28043273     0.07000
H634        H  0.68765314  0.99895294  0.22465746     0.08200
H635        H  0.72297691  0.05078394  0.26197840     0.07200
H636        H  0.88654727  0.97738981  0.17345666     0.02100
H637        H  0.89446666  0.96782432  0.23009925     0.02600
H638        H  0.92652620  0.03120993  0.20795179     0.06100
H639        H  0.79907191  0.87797587  0.32368701     0.05100
H640        H  0.77276665  0.91615176  0.30537081    -0.00700
H641        H  0.83933019  0.93755853  0.29697067     0.00800
H642        H  0.71441326  0.77056097  0.12517796     0.04500
H643        H  0.77998695  0.78542718  0.12211432     0.06400
H644        H  0.76176554  0.82937720  0.10194077     0.07300
C645        C  0.52869165  0.11364608  0.35958795    -0.22300
C646        C  0.55905190  0.10319905  0.33197232     0.09600
C647        C  0.54052175  0.08175455  0.29050277     0.10000
C648        C  0.49166873  0.07047784  0.27782043    -0.17300
C649        C  0.46101081  0.08143700  0.30500651    -0.27700
C650        C  0.48023851  0.10374391  0.34666723     0.18400
C651        C  0.61154481  0.11802433  0.34558238     0.12300
C652        C  0.57305498  0.07239019  0.25895058    -0.12000
H653        H  0.47790491  0.05408698  0.24587449     0.12600
C654        C  0.45066759  0.11755869  0.37804526    -0.22900
H655        H  0.54357178  0.13065537  0.39116688     0.08200
C656        C  0.65145387  0.16925594  0.34277148     0.04600
C657        C  0.70176421  0.18053074  0.34871509    -0.20100
C658        C  0.71330501  0.14158100  0.35558007    -0.12400
C659        C  0.67316952  0.09066359  0.36074376     0.13300
C660        C  0.62266445  0.07968297  0.35657724    -0.22800
C661        C  0.64141205  0.21139960  0.32985946    -0.05900
H662        H  0.73257301  0.21926922  0.34358096     0.14800
C663        C  0.68240498  0.04663727  0.36738795    -0.16100
H664        H  0.59193838  0.04035280  0.35878602     0.09100
H665        H  0.44460136  0.14780518  0.36400930     0.07000
H666        H  0.47122601  0.13286598  0.40923527     0.08200
H667        H  0.41360012  0.08315846  0.38553604     0.07200
H668        H  0.58276385  0.04451152  0.27263796     0.02100
H669        H  0.60857754  0.10896355  0.25245044     0.02600
H670        H  0.55332379  0.05671478  0.22750285     0.06100
H671        H  0.67704217  0.24899107  0.32807634     0.05100
H672        H  0.61612750  0.21487553  0.35400380    -0.00700
H673        H  0.62297254  0.20266696  0.29742206     0.00800
H674        H  0.66398890  0.02680986  0.39798190     0.04500
H675        H  0.72335979  0.05903547  0.36953047     0.06400
H676        H  0.66557033  0.01902000  0.33997401     0.07300
C677        C  0.13233862  0.13173569  0.24238936    -0.22300
C678        C  0.12449467  0.13891244  0.28612109     0.09600
C679        C  0.15630200  0.13689580  0.31822938     0.10000
C680        C  0.19490199  0.12678870  0.30594746    -0.17300
C681        C  0.20224542  0.11838426  0.26227542    -0.27700
C682        C  0.17100089  0.12167934  0.22994610     0.18400
C683        C  0.08333033  0.14957058  0.29754271     0.12300
C684        C  0.14945396  0.14548041  0.36541277    -0.12000
H685        H  0.21893420  0.12453873  0.33069582     0.12600
C686        C  0.17930993  0.11660067  0.18229367    -0.22900
H687        H  0.10818056  0.13424634  0.21795171     0.08200
C688        C  0.09153770  0.19976398  0.29731977     0.04600
C689        C  0.05150509  0.20817351  0.30824738    -0.20100
C690        C  0.00292426  0.16751032  0.31918932    -0.12400
C691        C  0.99514697  0.11694338  0.31981861     0.13300
C692        C  0.03556869  0.10884094  0.30895674    -0.22800
C693        C  0.14257947  0.24441144  0.28530669    -0.05900
H694        H  0.05821262  0.24697786  0.30733564     0.14800
C695        C  0.94504864  0.07123511  0.33235470    -0.16100
H696        H  0.02995853  0.07042607  0.30920935     0.09100
H697        H  0.17139018  0.07726465  0.17469823     0.07000
H698        H  0.21913473  0.14475839  0.17345774     0.08200
H699        H  0.15380010  0.12395567  0.16169899     0.07200
H700        H  0.11086045  0.11624110  0.37620418     0.02100
H701        H  0.15419595  0.18416195  0.37006473     0.02600
H702        H  0.17764166  0.14273731  0.38631293     0.06100
H703        H  0.14274439  0.28127156  0.28698533     0.05100
H704        H  0.15250519  0.23918743  0.25166543    -0.00700
H705        H  0.17212720  0.24698468  0.30789068     0.00800
H706        H  0.94711579  0.03553676  0.33306274     0.04500
H707        H  0.91528857  0.06503201  0.30845032     0.06400
H708        H  0.93391057  0.07733670  0.36526552     0.07300
loop_ 
_geom_bond_atom_site_label_1 
_geom_bond_atom_site_label_2 
_geom_bond_distance 
_geom_bond_site_symmetry_2 
_ccdc_geom_bond_type 
O1          Cr19   1.990       .  S
O1            C9   1.261       .  A
O2          Cr19   1.961       .  S
O2            C3   1.261       .  A
C3            O4   1.269       .  A
C3          C594   1.491       .  S
O4          Cr20   2.016       .  S
O5          Cr20   1.996       .  S
O5            C6   1.263       .  A
C6            O7   1.265       .  A
C6          C521   1.496       .  S
O7          Cr21   1.996       .  S
O8          Cr21   2.004       .  S
O8            C9   1.266       .  A
C9          C658   1.472       .  S
O10         Cr19   1.971       .  S
O10          C18   1.257       .  A
O11         Cr19   1.994       .  S
O11          C12   1.259       .  A
C12          O13   1.261       .  A
C12         C562   1.490       .  S
O13         Cr20   2.002       .  S
O14         Cr20   2.004       .  S
O14          C15   1.268       .  A
C15          O16   1.263       .  A
C15         C690   1.495   1_655  S
O16         Cr21   1.985       .  S
O17         Cr21   2.003       .  S
O17          C18   1.263       .  A
C18         C617   1.461       .  S
Cr19         O22   1.764       .  S
Cr20         O22   1.773       .  S
Cr21         O22   1.770       .  S
O23         Cr41   1.953       .  S
O23          C31   1.254       .  A
O24         Cr41   2.021       .  S
O24          C25   1.270       .  A
C25          O26   1.261       .  A
C25         C466   1.476       .  S
O26         Cr42   1.964       .  S
O27         Cr42   2.033       .  S
O27          C28   1.270       .  A
C28          O29   1.255       .  A
C28         C434   1.494       .  S
O29         Cr43   1.972       .  S
O30         Cr43   2.016       .  S
O30          C31   1.267       .  A
C31         C585   1.469       .  S
O32         Cr41   2.024       .  S
O32          C40   1.268       .  A
O33         Cr41   1.963       .  S
O33          C34   1.254       .  A
C34          O35   1.268       .  A
C34         C402   1.484       .  S
O35         Cr42   2.026       .  S
O36         Cr42   1.964       .  S
O36          C37   1.259       .  A
C37          O38   1.272       .  A
C37         C626   1.482       .  S
O38         Cr43   2.016       .  S
O39         Cr43   1.956       .  S
O39          C40   1.255       .  A
C40         C489   1.478       .  S
Cr41         O44   1.764       .  S
Cr42         O44   1.769       .  S
Cr43         O44   1.762       .  S
O45         Cr63   2.005       .  S
O45          C53   1.264       .  A
O46         Cr63   1.968       .  S
O46          C47   1.258       .  A
C47          O48   1.264       .  A
C47         C457   1.475       .  S
O48         Cr64   2.005       .  S
O49         Cr64   1.972       .  S
O49          C50   1.257       .  A
C50          O51   1.269   1_545  A
C50         C370   1.483       .  S
O51         Cr65   2.028   1_565  S
O52         Cr65   1.990       .  S
O52          C53   1.267       .  A
C53         C649   1.496       .  S
O54         Cr63   1.974       .  S
O54          C62   1.260       .  A
O55         Cr63   2.013       .  S
O55          C56   1.267       .  A
C56          O57   1.257       .  A
C56         C681   1.480       .  S
O57         Cr64   1.967       .  S
O58         Cr64   2.007   1_565  S
O58          C59   1.267       .  A
C59          O60   1.263       .  A
C59         C498   1.489       .  S
O60         Cr65   1.980   1_565  S
O61         Cr65   2.023   1_565  S
O61          C62   1.269   1_565  A
C62         C338   1.497   1_545  S
Cr63         O66   1.766       .  S
Cr64         O66   1.769       .  S
Cr65         O66   1.768       .  S
O67         Cr85   1.985       .  S
O67          C75   1.258       .  A
O68         Cr85   1.970       .  S
O68          C69   1.264       .  A
C69          O70   1.269       .  A
C69         C233   1.493       .  S
O70         Cr86   2.012       .  S
O71         Cr86   1.994       .  S
O71          C72   1.262       .  A
C72          O73   1.263       .  A
C72         C425   1.488       .  S
O73         Cr87   2.000       .  S
O74         Cr87   2.007       .  S
O74          C75   1.264       .  A
C75         C265   1.471       .  S
O76         Cr85   1.984       .  S
O76          C84   1.263       .  A
O77         Cr85   1.989       .  S
O77          C78   1.257       .  A
C78          O79   1.260       .  A
C78         C393   1.477       .  S
O79         Cr86   1.997       .  S
O80         Cr86   2.003       .  S
O80          C81   1.267       .  A
C81          O82   1.263       .  A
C81         C297   1.499       .  S
O82         Cr87   1.987       .  S
O83         Cr87   2.003       .  S
O83          C84   1.267       .  A
C84         C201   1.474       .  S
Cr85         O88   1.770       .  S
Cr86         O88   1.769       .  S
Cr87         O88   1.767       .  S
O89        Cr107   2.009       .  S
O89          C97   1.266       .  A
O90        Cr107   1.967       .  S
O90          C91   1.258       .  A
C91          O92   1.265       .  A
C91         C137   1.488       .  S
O92        Cr108   2.010       .  S
O93        Cr108   1.973       .  S
O93          C94   1.258       .  A
C94          O95   1.267       .  A
C94         C361   1.479       .  S
O95        Cr109   2.024       .  S
O96        Cr109   1.983       .  S
O96          C97   1.263       .  A
C97         C274   1.482       .  S
O98        Cr107   1.973       .  S
O98         C106   1.259       .  A
O99        Cr107   2.013       .  S
O99         C100   1.267       .  A
C100        O101   1.257       .  A
C100        C306   1.483       .  S
O101       Cr108   1.969       .  S
O102       Cr108   2.007       .  S
O102        C103   1.268       .  A
C103        O104   1.262       .  A
C103        C178   1.480   1_565  S
O104       Cr109   1.974       .  S
O105       Cr109   2.023       .  S
O105        C106   1.268       .  A
C106        C329   1.497       .  S
Cr107       O110   1.765       .  S
Cr108       O110   1.767       .  S
Cr109       O110   1.769       .  S
O111       Cr129   1.962       .  S
O111        C119   1.255       .  A
O112       Cr129   2.016       .  S
O112        C113   1.271       .  A
C113        O114   1.258       .  A
C113        C146   1.487       .  S
O114       Cr130   1.959       .  S
O115       Cr130   2.031   1_655  S
O115        C116   1.270   1_655  A
C116        O117   1.259       .  A
C116        C530   1.498       .  S
O117       Cr131   1.973       .  S
O118       Cr131   2.023       .  S
O118        C119   1.267       .  A
C119        C242   1.480       .  S
O120       Cr129   2.018       .  S
O120        C128   1.267       .  A
O121       Cr129   1.975       .  S
O121        C122   1.257       .  A
C122        O123   1.268       .  A
C122        C553   1.495       .  S
O123       Cr130   2.026       .  S
O124       Cr130   1.971   1_655  S
O124        C125   1.262       .  A
C125        O126   1.269   1_655  A
C125        C210   1.494       .  S
O126       Cr131   2.018       .  S
O127       Cr131   1.949       .  S
O127        C128   1.256       .  A
C128        C169   1.471       .  S
Cr129       O132   1.767       .  S
Cr130       O132   1.766       .  S
Cr131       O132   1.765       .  S
C133        C134   1.398       .  A
C133        C138   1.404       .  A
C133        H143   1.085       .  S
C134        C139   1.476       .  S
C134        C135   1.408       .  A
C135        C136   1.401       .  A
C135        C140   1.508       .  S
C136        C137   1.409       .  A
C136        H141   1.083       .  S
C137        C138   1.421       .  A
C138        C142   1.507       .  S
C139        C144   1.406       .  A
C139        C148   1.398       .  A
C140        H156   1.110       .  S
C140        H157   1.110       .  S
C140        H158   1.111       .  S
C142        H153   1.111       .  S
C142        H154   1.110       .  S
C142        H155   1.110       .  S
C144        C145   1.403       .  A
C144        C149   1.506       .  S
C145        C146   1.408       .  A
C145        H150   1.083       .  S
C146        C147   1.424       .  A
C147        C148   1.402       .  A
C147        C151   1.510       .  S
C148        H152   1.085       .  S
C149        H159   1.110       .  S
C149        H160   1.110       .  S
C149        H161   1.110       .  S
C151        H162   1.110       .  S
C151        H163   1.110       .  S
C151        H164   1.111       .  S
C165        C166   1.397       .  A
C165        C170   1.395       .  A
C165        H175   1.087       .  S
C166        C171   1.472       .  S
C166        C167   1.410       .  A
C167        C168   1.405       .  A
C167        C172   1.505       .  S
C168        C169   1.404       .  A
C168        H173   1.083       .  S
C169        C170   1.417       .  A
C170        C174   1.510       .  S
C171        C176   1.406       .  A
C171        C180   1.401       .  A
C172        H188   1.110       .  S
C172        H189   1.110       .  S
C172        H190   1.111       .  S
C174        H185   1.110       .  S
C174        H186   1.111       .  S
C174        H187   1.108       .  S
C176        C177   1.400       .  A
C176        C181   1.506       .  S
C177        C178   1.408       .  A
C177        H182   1.084       .  S
C178        C179   1.417       .  A
C179        C180   1.402       .  A
C179        C183   1.508       .  S
C180        H184   1.085       .  S
C181        H191   1.111       .  S
C181        H192   1.110       .  S
C181        H193   1.110       .  S
C183        H194   1.111       .  S
C183        H195   1.111       .  S
C183        H196   1.109       .  S
C197        C198   1.401       .  A
C197        C202   1.405       .  A
C197        H207   1.085       .  S
C198        C203   1.479   1_565  S
C198        C199   1.409       .  A
C199        C200   1.399       .  A
C199        C204   1.507   1_565  S
C200        C201   1.403       .  A
C200        H205   1.085       .  S
C201        C202   1.418       .  A
C202        C206   1.508       .  S
C203        C208   1.405       .  A
C203        C212   1.399       .  A
C204        H220   1.110       .  S
C204        H221   1.110       .  S
C204        H222   1.111       .  S
C206        H217   1.111       .  S
C206        H218   1.110       .  S
C206        H219   1.104       .  S
C208        C209   1.404       .  A
C208        C213   1.506       .  S
C209        C210   1.412       .  A
C209        H214   1.083       .  S
C210        C211   1.422       .  A
C211        C212   1.403       .  A
C211        C215   1.509       .  S
C212        H216   1.084       .  S
C213        H223   1.111       .  S
C213        H224   1.110       .  S
C213        H225   1.110       .  S
C215        H226   1.110   1_655  S
C215        H227   1.110       .  S
C215        H228   1.111       .  S
C229        C230   1.399       .  A
C229        C234   1.406       .  A
C229        H239   1.084       .  S
C230        C235   1.479       .  S
C230        C231   1.408       .  A
C231        C232   1.400       .  A
C231        C236   1.508       .  S
C232        C233   1.409       .  A
C232        H237   1.083       .  S
C233        C234   1.424       .  A
C234        C238   1.508       .  S
C235        C240   1.410       .  A
C235        C244   1.397       .  A
C236        H252   1.110       .  S
C236        H253   1.110       .  S
C236        H254   1.111       .  S
C238        H249   1.111       .  S
C238        H250   1.110       .  S
C238        H251   1.111       .  S
C240        C241   1.410       .  A
C240        C245   1.505       .  S
C241        C242   1.406       .  A
C241        H246   1.085       .  S
C242        C243   1.418       .  A
C243        C244   1.398       .  A
C243        C247   1.509       .  S
C244        H248   1.085       .  S
C245        H255   1.111       .  S
C245        H256   1.110       .  S
C245        H257   1.110       .  S
C247        H258   1.110       .  S
C247        H259   1.109       .  S
C247        H260   1.111       .  S
C261        C262   1.400       .  A
C261        C266   1.402       .  A
C261        H271   1.085       .  S
C262        C267   1.484       .  S
C262        C263   1.412       .  A
C263        C264   1.407       .  A
C263        C268   1.506       .  S
C264        C265   1.405       .  A
C264        H269   1.083       .  S
C265        C266   1.414       .  A
C266        C270   1.507       .  S
C267        C272   1.413       .  A
C267        C276   1.400       .  A
C268        H284   1.110       .  S
C268        H285   1.110       .  S
C268        H286   1.111       .  S
C270        H281   1.110       .  S
C270        H282   1.110       .  S
C270        H283   1.109       .  S
C272        C273   1.404       .  A
C272        C277   1.507       .  S
C273        C274   1.403       .  A
C273        H278   1.085       .  S
C274        C275   1.419       .  A
C275        C276   1.406       .  A
C275        C279   1.508       .  S
C276        H280   1.084       .  S
C277        H287   1.111       .  S
C277        H288   1.110       .  S
C277        H289   1.110       .  S
C279        H290   1.111       .  S
C279        H291   1.111       .  S
C279        H292   1.109       .  S
C293        C294   1.400       .  A
C293        C298   1.408       .  A
C293        H303   1.084       .  S
C294        C299   1.483       .  S
C294        C295   1.407       .  A
C295        C296   1.403       .  A
C295        C300   1.508       .  S
C296        C297   1.412       .  A
C296        H301   1.083       .  S
C297        C298   1.424       .  A
C298        C302   1.508       .  S
C299        C304   1.410       .  A
C299        C308   1.401       .  A
C300        H316   1.110       .  S
C300        H317   1.109       .  S
C300        H318   1.111       .  S
C302        H313   1.111       .  S
C302        H314   1.110       .  S
C302        H315   1.110       .  S
C304        C305   1.405   1_655  A
C304        C309   1.506       .  S
C305        C306   1.406       .  A
C305        H310   1.083       .  S
C306        C307   1.418       .  A
C307        C308   1.405   1_455  A
C307        C311   1.508       .  S
C308        H312   1.085       .  S
C309        H319   1.111   1_655  S
C309        H320   1.110       .  S
C309        H321   1.109       .  S
C311        H322   1.111       .  S
C311        H323   1.109       .  S
C311        H324   1.110       .  S
C325        C326   1.400   1_545  A
C325        C330   1.408   1_545  A
C325        H335   1.085       .  S
C326        C331   1.485       .  S
C326        C327   1.408       .  A
C327        C328   1.405       .  A
C327        C332   1.507       .  S
C328        C329   1.411       .  A
C328        H333   1.084       .  S
C329        C330   1.422       .  A
C330        C334   1.507   1_565  S
C331        C336   1.408   1_565  A
C331        C340   1.399       .  A
C332        H348   1.110       .  S
C332        H349   1.110       .  S
C332        H350   1.111       .  S
C334        H345   1.111       .  S
C334        H346   1.110       .  S
C334        H347   1.110       .  S
C336        C337   1.407       .  A
C336        C341   1.506       .  S
C337        C338   1.411   1_545  A
C337        H342   1.085       .  S
C338        C339   1.423       .  A
C339        C340   1.406       .  A
C339        C343   1.508       .  S
C340        H344   1.083       .  S
C341        H351   1.111       .  S
C341        H352   1.110       .  S
C341        H353   1.110   1_545  S
C343        H354   1.110       .  S
C343        H355   1.110       .  S
C343        H356   1.111       .  S
C357        C358   1.405       .  A
C357        C362   1.406       .  A
C357        H367   1.084       .  S
C358        C363   1.492   1_556  S
C358        C359   1.416   1_565  A
C359        C360   1.405   1_545  A
C359        C364   1.509       .  S
C360        C361   1.404       .  A
C360        H365   1.084   1_565  S
C361        C362   1.413       .  A
C362        C366   1.507       .  S
C363        C368   1.415       .  A
C363        C372   1.405   1_565  A
C364        H380   1.109       .  S
C364        H381   1.111       .  S
C364        H382   1.111       .  S
C366        H377   1.110       .  S
C366        H378   1.110       .  S
C366        H379   1.109       .  S
C368        C369   1.405       .  A
C368        C373   1.508       .  S
C369        C370   1.404   1_565  A
C369        H374   1.084       .  S
C370        C371   1.415       .  A
C371        C372   1.408       .  A
C371        C375   1.507       .  S
C372        H376   1.083       .  S
C373        H383   1.111       .  S
C373        H384   1.109       .  S
C373        H385   1.110       .  S
C375        H386   1.111       .  S
C375        H387   1.110       .  S
C375        H388   1.109       .  S
C389        C390   1.401       .  A
C389        C394   1.402       .  A
C389        H399   1.084       .  S
C390        C395   1.486       .  S
C390        C391   1.415       .  A
C391        C392   1.406       .  A
C391        C396   1.507       .  S
C392        C393   1.403       .  A
C392        H397   1.082       .  S
C393        C394   1.417       .  A
C394        C398   1.509       .  S
C395        C400   1.415       .  A
C395        C404   1.398       .  A
C396        H412   1.109       .  S
C396        H413   1.110       .  S
C396        H414   1.111       .  S
C398        H409   1.110       .  S
C398        H410   1.110       .  S
C398        H411   1.107       .  S
C400        C401   1.407   1_556  A
C400        C405   1.507       .  S
C401        C402   1.405       .  A
C401        H406   1.084       .  S
C402        C403   1.420       .  A
C403        C404   1.401   1_554  A
C403        C407   1.509       .  S
C404        H408   1.084       .  S
C405        H415   1.111   1_556  S
C405        H416   1.109       .  S
C405        H417   1.110       .  S
C407        H418   1.111   1_554  S
C407        H419   1.111       .  S
C407        H420   1.110       .  S
C421        C422   1.400       .  A
C421        C426   1.403       .  A
C421        H431   1.084       .  S
C422        C427   1.489       .  S
C422        C423   1.413       .  A
C423        C424   1.412       .  A
C423        C428   1.505       .  S
C424        C425   1.407       .  A
C424        H429   1.083       .  S
C425        C426   1.419       .  A
C426        C430   1.510       .  S
C427        C432   1.412       .  A
C427        C436   1.401       .  A
C428        H444   1.110       .  S
C428        H445   1.109       .  S
C428        H446   1.111       .  S
C430        H441   1.111       .  S
C430        H442   1.111       .  S
C430        H443   1.109       .  S
C432        C433   1.407       .  A
C432        C437   1.507       .  S
C433        C434   1.407       .  A
C433        H438   1.084       .  S
C434        C435   1.422       .  A
C435        C436   1.408       .  A
C435        C439   1.508       .  S
C436        H440   1.085       .  S
C437        H447   1.111       .  S
C437        H448   1.110       .  S
C437        H449   1.108       .  S
C439        H450   1.109       .  S
C439        H451   1.107       .  S
C439        H452   1.111       .  S
C453        C454   1.401       .  A
C453        C458   1.403       .  A
C453        H463   1.083       .  S
C454        C459   1.477       .  S
C454        C455   1.411       .  A
C455        C456   1.400       .  A
C455        C460   1.508       .  S
C456        C457   1.404       .  A
C456        H461   1.085       .  S
C457        C458   1.415       .  A
C458        C462   1.508       .  S
C459        C464   1.411       .  A
C459        C468   1.398       .  A
C460        H476   1.109       .  S
C460        H477   1.110       .  S
C460        H478   1.111       .  S
C462        H473   1.110       .  S
C462        H474   1.111       .  S
C462        H475   1.111       .  S
C464        C465   1.407       .  A
C464        C469   1.506       .  S
C465        C466   1.406       .  A
C465        H470   1.084       .  S
C466        C467   1.415       .  A
C467        C468   1.397       .  A
C467        C471   1.508       .  S
C468        H472   1.086       .  S
C469        H479   1.111       .  S
C469        H480   1.110       .  S
C469        H481   1.110       .  S
C471        H482   1.109       .  S
C471        H483   1.111       .  S
C471        H484   1.111       .  S
C485        C486   1.399   1_655  A
C485        C490   1.399       .  A
C485        H495   1.085       .  S
C486        C491   1.481       .  S
C486        C487   1.411   1_455  A
C487        C488   1.407       .  A
C487        C492   1.506   1_655  S
C488        C489   1.405       .  A
C488        H493   1.084       .  S
C489        C490   1.418       .  A
C490        C494   1.509       .  S
C491        C496   1.408       .  A
C491        C500   1.401       .  A
C492        H508   1.110       .  S
C492        H509   1.110       .  S
C492        H510   1.111       .  S
C494        H505   1.110       .  S
C494        H506   1.111       .  S
C494        H507   1.106       .  S
C496        C497   1.404       .  A
C496        C501   1.507       .  S
C497        C498   1.410       .  A
C497        H502   1.084       .  S
C498        C499   1.420       .  A
C499        C500   1.404       .  A
C499        C503   1.508       .  S
C500        H504   1.083       .  S
C501        H511   1.111       .  S
C501        H512   1.110       .  S
C501        H513   1.110       .  S
C503        H514   1.111       .  S
C503        H515   1.110       .  S
C503        H516   1.110       .  S
C517        C518   1.405       .  A
C517        C522   1.414       .  A
C517        H527   1.084       .  S
C518        C523   1.488       .  S
C518        C519   1.409       .  A
C519        C520   1.399       .  A
C519        C524   1.509       .  S
C520        C521   1.408       .  A
C520        H525   1.083       .  S
C521        C522   1.421       .  A
C522        C526   1.506       .  S
C523        C528   1.409   1_655  A
C523        C532   1.402       .  A
C524        H540   1.110       .  S
C524        H541   1.110   1_655  S
C524        H542   1.111       .  S
C526        H537   1.111       .  S
C526        H538   1.110       .  S
C526        H539   1.110       .  S
C528        C529   1.406       .  A
C528        C533   1.506       .  S
C529        C530   1.410       .  A
C529        H534   1.084       .  S
C530        C531   1.422   1_455  A
C531        C532   1.409       .  A
C531        C535   1.507       .  S
C532        H536   1.084       .  S
C533        H543   1.111       .  S
C533        H544   1.110       .  S
C533        H545   1.110       .  S
C535        H546   1.111       .  S
C535        H547   1.110       .  S
C535        H548   1.111       .  S
C549        C550   1.401   1_655  A
C549        C554   1.407   1_654  A
C549        H559   1.084       .  S
C550        C555   1.487   1_455  S
C550        C551   1.410       .  A
C551        C552   1.408   1_554  A
C551        C556   1.507       .  S
C552        C553   1.410       .  A
C552        H557   1.084       .  S
C553        C554   1.420       .  A
C554        C558   1.507   1_455  S
C555        C560   1.413   1_655  A
C555        C564   1.397       .  A
C556        H572   1.110       .  S
C556        H573   1.109       .  S
C556        H574   1.111       .  S
C558        H569   1.111       .  S
C558        H570   1.110       .  S
C558        H571   1.111   1_655  S
C560        C561   1.411       .  A
C560        C565   1.505       .  S
C561        C562   1.407   1_455  A
C561        H566   1.083       .  S
C562        C563   1.421       .  A
C563        C564   1.402       .  A
C563        C567   1.507       .  S
C564        H568   1.085       .  S
C565        H575   1.111       .  S
C565        H576   1.110       .  S
C565        H577   1.109       .  S
C567        H578   1.108       .  S
C567        H579   1.107       .  S
C567        H580   1.111       .  S
C581        C582   1.397       .  A
C581        C586   1.396       .  A
C581        H591   1.086       .  S
C582        C587   1.474       .  S
C582        C583   1.411       .  A
C583        C584   1.405       .  A
C583        C588   1.505       .  S
C584        C585   1.403       .  A
C584        H589   1.084       .  S
C585        C586   1.415       .  A
C586        C590   1.509       .  S
C587        C592   1.407       .  A
C587        C596   1.399       .  A
C588        H604   1.110       .  S
C588        H605   1.109       .  S
C588        H606   1.111       .  S
C590        H601   1.109       .  S
C590        H602   1.111       .  S
C590        H603   1.110       .  S
C592        C593   1.398       .  A
C592        C597   1.509       .  S
C593        C594   1.410       .  A
C593        H598   1.083       .  S
C594        C595   1.423       .  A
C595        C596   1.405       .  A
C595        C599   1.508       .  S
C596        H600   1.084       .  S
C597        H607   1.111       .  S
C597        H608   1.110       .  S
C597        H609   1.109       .  S
C599        H610   1.110       .  S
C599        H611   1.110       .  S
C599        H612   1.111       .  S
C613        C614   1.401       .  A
C613        C618   1.399   1_565  A
C613        H623   1.084       .  S
C614        C619   1.474       .  S
C614        C615   1.410       .  A
C615        C616   1.401   1_565  A
C615        C620   1.506       .  S
C616        C617   1.401       .  A
C616        H621   1.084       .  S
C617        C618   1.411       .  A
C618        C622   1.507       .  S
C619        C624   1.409       .  A
C619        C628   1.398       .  A
C620        H636   1.110       .  S
C620        H637   1.110       .  S
C620        H638   1.111   1_565  S
C622        H633   1.110   1_545  S
C622        H634   1.110   1_545  S
C622        H635   1.109       .  S
C624        C625   1.399       .  A
C624        C629   1.508       .  S
C625        C626   1.404       .  A
C625        H630   1.084       .  S
C626        C627   1.423       .  A
C627        C628   1.405       .  A
C627        C631   1.510       .  S
C628        H632   1.084       .  S
C629        H639   1.110       .  S
C629        H640   1.110       .  S
C629        H641   1.110       .  S
C631        H642   1.109       .  S
C631        H643   1.109       .  S
C631        H644   1.111       .  S
C645        C646   1.399       .  A
C645        C650   1.407       .  A
C645        H655   1.084       .  S
C646        C651   1.487       .  S
C646        C647   1.411       .  A
C647        C648   1.404       .  A
C647        C652   1.507       .  S
C648        C649   1.406       .  A
C648        H653   1.084       .  S
C649        C650   1.427       .  A
C650        C654   1.509       .  S
C651        C656   1.412       .  A
C651        C660   1.404       .  A
C652        H668   1.109       .  S
C652        H669   1.111       .  S
C652        H670   1.111       .  S
C654        H665   1.110       .  S
C654        H666   1.111       .  S
C654        H667   1.110       .  S
C656        C657   1.404       .  A
C656        C661   1.507       .  S
C657        C658   1.403       .  A
C657        H662   1.084       .  S
C658        C659   1.414       .  A
C659        C660   1.406       .  A
C659        C663   1.506       .  S
C660        H664   1.085       .  S
C661        H671   1.110       .  S
C661        H672   1.109       .  S
C661        H673   1.111       .  S
C663        H674   1.110       .  S
C663        H675   1.109       .  S
C663        H676   1.110       .  S
C677        C678   1.401       .  A
C677        C682   1.405       .  A
C677        H687   1.084       .  S
C678        C683   1.481       .  S
C678        C679   1.410       .  A
C679        C680   1.403       .  A
C679        C684   1.506       .  S
C680        C681   1.404       .  A
C680        H685   1.084       .  S
C681        C682   1.418       .  A
C682        C686   1.508       .  S
C683        C688   1.407       .  A
C683        C692   1.400       .  A
C684        H700   1.110       .  S
C684        H701   1.110       .  S
C684        H702   1.111       .  S
C686        H697   1.109       .  S
C686        H698   1.111       .  S
C686        H699   1.111       .  S
C688        C689   1.402       .  A
C688        C693   1.507       .  S
C689        C690   1.411       .  A
C689        H694   1.084       .  S
C690        C691   1.423   1_455  A
C691        C692   1.407   1_655  A
C691        C695   1.508       .  S
C692        H696   1.084       .  S
C693        H703   1.111       .  S
C693        H704   1.110       .  S
C693        H705   1.110       .  S
C695        H706   1.111       .  S
C695        H707   1.109       .  S
C695        H708   1.110       .  S
