geometry optimzed in LAMMPS
_audit_creation_date              2020-12-01 
_audit_creation_method            'lammps2cif' 
_symmetry_space_group_name_H-M    'P1' 
_symmetry_Int_Tables_number       1 
_symmetry_cell_setting            triclinic 
loop_ 
_symmetry_equiv_pos_as_xyz 
  x,y,z 
_cell_length_a                    24.16257595 
_cell_length_b                    24.21044221321244 
_cell_length_c                    85.04498363042505 
_cell_angle_alpha                 89.99383823524428 
_cell_angle_beta                  89.99585086042906 
_cell_angle_gamma                 120.37823393605933 
loop_ 
_atom_site_label 
_atom_site_type_symbol 
_atom_site_fract_x 
_atom_site_fract_y 
_atom_site_fract_z 
_atom_site_charge 
Zn1        Zn  0.10116861  0.24841435  0.38316934     1.49700
Zn2        Zn  0.25424505  0.35237159  0.38420934     1.49400
Zn3        Zn  0.17255905  0.33797402  0.35456178     1.49100
Zn4        Zn  0.14997995  0.40088907  0.38377743     1.49500
O5          O  0.16946472  0.33484975  0.37694674    -1.80400
O6          O  0.13716288  0.20821462  0.39825039    -0.71000
O7          O  0.31423459  0.35822303  0.36556453    -0.70800
O8          O  0.09964050  0.26568408  0.34482371    -0.70300
O9          O  0.24031418  0.28410127  0.39978765    -0.71000
O10         O  0.05048272  0.19312338  0.36361593    -0.70600
O11         O  0.24635305  0.33797796  0.34585726    -0.71200
O12         O  0.14435841  0.45365714  0.36481632    -0.70600
O13         O  0.29126337  0.42787972  0.39943621    -0.71300
O14         O  0.17450508  0.41248859  0.34559770    -0.70700
O15         O  0.21710778  0.45701615  0.39947318    -0.71200
O16         O  0.07347964  0.36134085  0.39885531    -0.71100
O17         O  0.04379770  0.25784178  0.39874462    -0.70900
C18         C  0.19216367  0.23280271  0.40480629     0.80900
C19         C  0.29983149  0.34860117  0.35091878     0.81400
C20         C  0.05676688  0.21072443  0.34918698     0.80400
C21         C  0.15894013  0.45200902  0.35038772     0.80700
C22         C  0.26681647  0.45936378  0.40524778     0.81900
C23         C  0.04147299  0.30498598  0.40458807     0.80900
Zn24       Zn  0.41601684  0.99551277  0.28885238     1.49700
Zn25       Zn  0.07977408  0.07447714  0.28836532     1.49400
Zn26       Zn  0.50921963  0.43125652  0.28906121     1.49100
Zn27       Zn  0.00264423  0.50856734  0.26272141     1.49500
O28         O  0.00110464  0.50732452  0.28434696    -1.80400
O29         O  0.94902752  0.06798520  0.30430796    -0.71000
O30         O  0.12449692  0.56198976  0.30581211    -0.70800
O31         O  0.44115467  0.38360221  0.30556242    -0.70300
O32         O  0.05595384  0.12622573  0.30260923    -0.71000
O33         O  0.37859413  0.42688643  0.30421317    -0.70600
O34         O  0.07776480  0.45544133  0.30380911    -0.71200
O35         O  0.45322828  0.42491841  0.25390367    -0.70600
O36         O  0.13881576  0.12338213  0.26899705    -0.71300
O37         O  0.49676867  0.37924026  0.26797630    -0.70700
O38         O  0.08023338  0.05243858  0.25067989    -0.71200
O39         O  0.45002754  0.03052054  0.25172582    -0.71100
O40         O  0.37046007  0.00490579  0.26858878    -0.70900
C41         C  0.00301881  0.11289718  0.30913627     0.80900
C42         C  0.11604539  0.50837188  0.31061398     0.81400
C43         C  0.39562726  0.39041476  0.31082708     0.80400
C44         C  0.46878901  0.38265378  0.25544144     0.80700
C45         C  0.12997438  0.10309154  0.25477358     0.81900
C46         C  0.39577125  0.02311906  0.25490393     0.80900
C47         C  0.17101319  0.33733798  0.83105236     0.49200
H48         H  0.17037208  0.33645174  0.84410039     0.00200
C49         C  0.17263436  0.33939202  0.80085481     0.49300
H50         H  0.17350810  0.34036564  0.78772962     0.00200
C51         C  0.14402767  0.38113622  0.82380655    -0.13500
C52         C  0.24233445  0.36545799  0.82390734    -0.13200
C53         C  0.12797550  0.26684244  0.82340142    -0.13600
C54         C  0.14976597  0.38246873  0.80764574    -0.13600
C55         C  0.23862101  0.36182935  0.80775519    -0.13200
C56         C  0.12832704  0.27251127  0.80725292    -0.13500
C57         C  0.50592906  0.00204736  0.82968217     0.49200
H58         H  0.50455295  0.50266412  0.81733650     0.00200
C59         C  0.50736610  0.00198127  0.85986178     0.49300
H60         H  0.00587949  0.00548056  0.87338643     0.00200
C61         C  0.03472101  0.07493488  0.83716717    -0.13500
C62         C  0.43366808  0.45898857  0.83775276    -0.13200
C63         C  0.04835569  0.47635403  0.83753646    -0.13600
C64         C  0.03068835  0.07107315  0.85334512    -0.13600
C65         C  0.43828216  0.45822256  0.85388708    -0.13200
C66         C  0.04819250  0.48142969  0.85371464    -0.13500
C67         C  0.16680665  0.33129408  0.52633682     0.49200
H68         H  0.16731375  0.33120710  0.53946304     0.00200
C69         C  0.16602622  0.33165780  0.49612455     0.49300
H70         H  0.16562622  0.33174938  0.48307465     0.00200
C71         C  0.19647919  0.39862528  0.51967558    -0.13500
C72         C  0.20434732  0.30220036  0.51946288    -0.13200
C73         C  0.09908732  0.29323635  0.51980685    -0.13600
C74         C  0.19997931  0.40308840  0.50351035    -0.13600
C75         C  0.20387460  0.29810931  0.50330322    -0.13200
C76         C  0.09468876  0.29340673  0.50360279    -0.13500
C77         C  0.32910248  0.16193506  0.46669519     0.49200
H78         H  0.32929512  0.16178929  0.45357642     0.00200
C79         C  0.32879972  0.16226290  0.49693801     0.49300
H80         H  0.32864249  0.16248087  0.50998773     0.00200
C81         C  0.30022479  0.09473463  0.47353029    -0.13500
C82         C  0.39656438  0.20099349  0.47347640    -0.13200
C83         C  0.29016350  0.19018819  0.47328837    -0.13600
C84         C  0.29581011  0.09078128  0.48970150    -0.13600
C85         C  0.40044455  0.20073419  0.48965891    -0.13200
C86         C  0.29048077  0.19484693  0.48945631    -0.13500
Zn87       Zn  0.32484304  0.15768647  0.59444570     1.49700
Zn88       Zn  0.25436906  0.07685795  0.62191934     1.49400
Zn89       Zn  0.40988243  0.17125151  0.62178464     1.49100
Zn90       Zn  0.31760602  0.23265363  0.62136043     1.49500
O91         O  0.32689890  0.15958919  0.61626819    -1.80400
O92         O  0.29204095  0.07263171  0.58591415    -0.71000
O93         O  0.28739350  0.03458798  0.63701637    -0.70800
O94         O  0.46509029  0.18442567  0.60144652    -0.70300
O95         O  0.20748835  0.02280659  0.60153701    -0.71000
O96         O  0.40874890  0.20879730  0.58515363    -0.70600
O97         O  0.39416225  0.09762508  0.63616121    -0.71200
O98         O  0.39065942  0.29060263  0.63607666    -0.70600
O99         O  0.20005323  0.09497930  0.63688540    -0.71300
O100        O  0.45098933  0.24489633  0.63731600    -0.70700
O101        O  0.24320025  0.20142562  0.63652766    -0.71200
O102        O  0.30862561  0.27574119  0.60072546    -0.71100
O103        O  0.27217822  0.18960010  0.58564151    -0.70900
C104        C  0.23518702  0.02834059  0.58826521     0.80900
C105        C  0.34336409  0.05124237  0.64214439     0.81400
C106        C  0.45698490  0.20334138  0.58799190     0.80400
C107        C  0.43567799  0.28501663  0.64231467     0.80700
C108        C  0.20508211  0.14645657  0.64235679     0.81900
C109        C  0.28536147  0.24660387  0.58766718     0.80900
Zn110      Zn  0.41821713  0.42473459  0.70590367     1.49700
Zn111      Zn  0.01054236  0.08863949  0.70626757     1.49400
Zn112      Zn  0.00005635  0.00772478  0.73549125     1.49100
Zn113      Zn  0.07591071  0.49443145  0.70671738     1.49500
O114        O  0.99980660  0.00603673  0.71326214    -1.80400
O115        O  0.37598330  0.95301974  0.68948275    -0.71000
O116        O  0.02666910  0.15257970  0.72502590    -0.70800
O117        O  0.41799582  0.46909277  0.74159397    -0.70300
O118        O  0.43156757  0.05978536  0.69097078    -0.71000
O119        O  0.36781545  0.38206672  0.72672642    -0.70600
O120        O  0.01871249  0.08757870  0.74433929    -0.71200
O121        O  0.12437361  0.48351087  0.72608745    -0.70600
O122        O  0.08127070  0.12497912  0.69002696    -0.71300
O123        O  0.06531784  0.49135413  0.74490179    -0.70700
O124        O  0.12943467  0.06713771  0.69207892    -0.71200
O125        O  0.54040506  0.41724435  0.68919535    -0.71100
O126        O  0.43364536  0.36774896  0.69125312    -0.70900
C127        C  0.38915889  0.00793713  0.68444769     0.80900
C128        C  0.02815878  0.14086362  0.73967949     0.81400
C129        C  0.37433341  0.41152470  0.73974519     0.80400
C130        C  0.11041800  0.48311581  0.74065010     0.80700
C131        C  0.12159755  0.10961402  0.68523517     0.81900
C132        C  0.48435442  0.37573330  0.68449401     0.80900
C133        C  0.33184249  0.16791647  0.19454924     0.49200
H134        H  0.33172495  0.16803202  0.20767365     0.00200
C135        C  0.33206534  0.16752232  0.16432141     0.49300
H136        H  0.33221684  0.16738938  0.15127142     0.00200
C137        C  0.26487251  0.14110777  0.18775185    -0.13500
C138        C  0.37223297  0.23494933  0.18782181    -0.13200
C139        C  0.35818637  0.12748742  0.18794218    -0.13600
C140        C  0.26056186  0.13612203  0.17160999    -0.13600
C141        C  0.37188097  0.23895212  0.17164079    -0.13200
C142        C  0.36322598  0.12784476  0.17179597    -0.13500
C143        C  0.99713208  0.00006532  0.16551496     0.49200
H144        H  0.49823351  0.00177799  0.17925410     0.00200
C145        C  0.99616935  0.00090797  0.13531562     0.49300
H146        H  0.99576746  0.00122626  0.12218706     0.00200
C147        C  0.45967685  0.42971672  0.15780343    -0.13500
C148        C  0.46440077  0.03806018  0.15859356    -0.13200
C149        C  0.06863792  0.03521836  0.15800316    -0.13600
C150        C  0.45995858  0.43438697  0.14163644    -0.13600
C151        C  0.46873890  0.03728280  0.14243151    -0.13200
C152        C  0.06389614  0.03200909  0.14182401    -0.13500
Zn153      Zn  0.10672252  0.26168913  0.95487602     1.49700
Zn154      Zn  0.26036514  0.35640902  0.95583228     1.49400
Zn155      Zn  0.18352109  0.35128713  0.92796003     1.49100
Zn156      Zn  0.16480782  0.41614147  0.95616329     1.49500
O157        O  0.17797717  0.34633902  0.94985426    -1.80400
O158        O  0.13789017  0.21865539  0.97019481    -0.71000
O159        O  0.31443170  0.36192823  0.93589739    -0.70800
O160        O  0.14626749  0.26807951  0.91787412    -0.70300
O161        O  0.24382832  0.28486374  0.97082110    -0.71000
O162        O  0.06559550  0.20925499  0.93421994    -0.70600
O163        O  0.27085994  0.40299565  0.92044386    -0.71200
O164        O  0.14937552  0.46096599  0.93644990    -0.70600
O165        O  0.30234334  0.43097938  0.97091121    -0.71300
O166        O  0.13927235  0.38993116  0.91850951    -0.70700
O167        O  0.23837532  0.47307050  0.97080603    -0.71200
O168        O  0.09213092  0.37897592  0.97207855    -0.71100
O169        O  0.04721826  0.27287884  0.96961507    -0.70900
C170        C  0.19290589  0.23682839  0.97613626     0.80900
C171        C  0.31157524  0.38599017  0.92272062     0.81400
C172        C  0.09243227  0.21907001  0.92067712     0.80400
C173        C  0.13692743  0.43887223  0.92234659     0.80700
C174        C  0.28481210  0.46853186  0.97654621     0.81900
C175        C  0.05284888  0.32206804  0.97663268     0.80900
Zn176      Zn  0.33989106  0.16846004  0.06632322     1.49700
Zn177      Zn  0.25245893  0.09681182  0.03948197     1.49400
Zn178      Zn  0.35197845  0.24997212  0.03933112     1.49100
Zn179      Zn  0.40669708  0.15116148  0.03952585     1.49500
O180        O  0.33728150  0.16589888  0.04458950    -1.80400
O181        O  0.25746219  0.14490493  0.07553591    -0.71000
O182        O  0.21546191  0.13171769  0.02343966    -0.70800
O183        O  0.36374816  0.30337986  0.05990169    -0.70300
O184        O  0.19767326  0.06077032  0.06031444    -0.71000
O185        O  0.40123707  0.25327491  0.07426074    -0.70600
O186        O  0.28091102  0.23779454  0.02446017    -0.71200
O187        O  0.46443395  0.22193550  0.02438662    -0.70600
O188        O  0.26391326  0.03446614  0.02561481    -0.71300
O189        O  0.42671315  0.28949736  0.02426174    -0.70700
O190        O  0.37017507  0.07482176  0.02480453    -0.71200
O191        O  0.44951136  0.14118768  0.06026233    -0.71100
O192        O  0.36380530  0.10986979  0.07524270    -0.70900
C193        C  0.20755547  0.09120554  0.07336062     0.80900
C194        C  0.23437911  0.18790636  0.01822898     0.81400
C195        C  0.38850884  0.29748565  0.07268028     0.80400
C196        C  0.46238624  0.26961287  0.01862747     0.80700
C197        C  0.31369670  0.03661673  0.01973358     0.81900
C198        C  0.41976323  0.11956885  0.07335140     0.80900
C199        C  0.20808959  0.19519126  0.00362359    -0.09500
C200        C  0.19741973  0.20783490  0.99057372    -0.11100
C201        C  0.31157249  0.49943423  0.99137830    -0.09500
C202        C  0.30662101  0.00149819  0.00539381    -0.11100
C203        C  0.49430259  0.29573054  0.00387152    -0.09500
C204        C  0.02002602  0.31270333  0.99145216    -0.11100
C205        C  0.42793035  0.38487462  0.12988965    -0.14700
C206        C  0.41216792  0.36374884  0.11669890     0.09300
C207        C  0.40257926  0.35049396  0.10030403     0.11200
C208        C  0.39678407  0.33488056  0.08658956    -0.15600
C209        C  0.44849392  0.11044665  0.08722799    -0.14700
C210        C  0.45573461  0.10305023  0.10102798     0.09300
C211        C  0.45464260  0.09074487  0.11744189     0.11200
C212        C  0.45541073  0.07220455  0.13064199    -0.15600
C213        C  0.11329611  0.04975555  0.13001018    -0.14700
C214        C  0.13473526  0.05464383  0.11686382     0.09300
C215        C  0.14920786  0.05705172  0.10055192     0.11200
C216        C  0.16667900  0.06504870  0.08694764    -0.15600
C217        C  0.43308932  0.07120668  0.16797054    -0.12700
C218        C  0.39367785  0.09404574  0.16236074    -0.27800
H219        H  0.44390009  0.07633733  0.18040831     0.16400
H220        H  0.38296748  0.08927752  0.14992573     0.16900
C221        C  0.42755716  0.36554860  0.16738018    -0.12700
C222        C  0.40454695  0.30289937  0.16197989    -0.27800
H223        H  0.42344175  0.37199387  0.17981350     0.16400
H224        H  0.40830749  0.29625022  0.14954334     0.16900
C225        C  0.19626025  0.10578524  0.16203136    -0.12700
C226        C  0.13324715  0.06669426  0.16750784    -0.27800
H227        H  0.20298083  0.11636668  0.14960240     0.16400
H228        H  0.12698075  0.05600774  0.17994981     0.16900
C229        C  0.36144596  0.01216495  0.66970654    -0.09500
C230        C  0.34954183  0.02313658  0.65658592    -0.11100
C231        C  0.46430726  0.31927708  0.65674917    -0.09500
C232        C  0.47737037  0.34261385  0.66981490    -0.11100
C233        C  0.17341056  0.14293314  0.65700538    -0.09500
C234        C  0.15278811  0.13418863  0.67031035    -0.11100
C235        C  0.21310808  0.44803967  0.53133206    -0.14700
C236        C  0.21731084  0.46892583  0.54448218     0.09300
C237        C  0.21929911  0.48167759  0.56084723     0.11200
C238        C  0.20362058  0.98956942  0.57464959    -0.15600
C239        C  0.04990923  0.25803386  0.53158142    -0.14700
C240        C  0.02939477  0.23932479  0.54475873     0.09300
C241        C  0.01667465  0.22668169  0.56119510     0.11200
C242        C  0.49800561  0.21460546  0.57467112    -0.15600
C243        C  0.24020875  0.28853938  0.53086585    -0.14700
C244        C  0.25935349  0.28670864  0.54389861     0.09300
C245        C  0.27157707  0.28614682  0.56023128     0.11200
C246        C  0.27815456  0.27721745  0.57394680    -0.15600
C247        C  0.26496134  0.02685717  0.49942994    -0.12700
C248        C  0.23093940  0.46739043  0.49393221    -0.27800
H249        H  0.27575685  0.03367702  0.51186336     0.16400
H250        H  0.21985914  0.46071227  0.48152146     0.16900
C251        C  0.03082235  0.26066108  0.49390891    -0.12700
C252        C  0.46451747  0.23322199  0.49938513    -0.27800
H253        H  0.03773639  0.25667330  0.48149352     0.16400
H254        H  0.45773996  0.23718844  0.51181297     0.16900
C255        C  0.23596513  0.26654892  0.49362100    -0.12700
C256        C  0.25776205  0.22604652  0.49900483    -0.27800
H257        H  0.24101489  0.27797216  0.48122071     0.16400
H258        H  0.25264849  0.21457587  0.51139515     0.16900
C259        C  0.34815950  0.38901450  0.90907733    -0.14700
C260        C  0.36156035  0.39271909  0.89524725     0.09300
C261        C  0.37131970  0.40244093  0.87875784     0.11200
C262        C  0.39006314  0.42075230  0.86552001    -0.15600
C263        C  0.08579128  0.47229831  0.86564629    -0.14700
C264        C  0.10400208  0.47363118  0.87903424     0.09300
C265        C  0.11538812  0.47585106  0.89557189     0.11200
C266        C  0.12357412  0.46869285  0.90935204    -0.15600
C267        C  0.06218382  0.17818885  0.90734019    -0.14700
C268        C  0.05149433  0.15949524  0.89387146     0.09300
C269        C  0.04786849  0.14311187  0.87771700     0.11200
C270        C  0.04406130  0.12032623  0.86482273    -0.15600
C271        C  0.28706328  0.37103500  0.79641011    -0.14700
C272        C  0.30833147  0.37125419  0.78352606     0.09300
C273        C  0.32179254  0.37151313  0.76727570     0.11200
C274        C  0.33733409  0.38067819  0.75357453    -0.15600
C275        C  0.14258709  0.47206860  0.75345825    -0.14700
C276        C  0.15000879  0.46185387  0.76703441     0.09300
C277        C  0.14657083  0.44570775  0.78325599     0.11200
C278        C  0.14337698  0.42321912  0.79619497    -0.15600
C279        C  0.04145108  0.18574607  0.75222357    -0.14700
C280        C  0.05184110  0.20178038  0.76592017     0.09300
C281        C  0.06661916  0.21038922  0.78228822     0.11200
C282        C  0.08786883  0.22644754  0.79548445    -0.15600
C283        C  0.08255666  0.44650079  0.82797733    -0.12700
C284        C  0.11445154  0.41531510  0.83350358    -0.27800
H285        H  0.07754621  0.44847113  0.81539951     0.16400
H286        H  0.11730521  0.41113745  0.84609173     0.16900
C287        C  0.36956421  0.42613429  0.82815246    -0.12700
C288        C  0.30605677  0.39392595  0.83364036    -0.27800
H289        H  0.37711754  0.43256681  0.81562277     0.16400
H290        H  0.29850247  0.38968452  0.84620041     0.16900
C291        C  0.09365234  0.20237240  0.83287244    -0.12700
C292        C  0.06447578  0.13896587  0.82738727    -0.27800
H293        H  0.09644309  0.20986085  0.84541017     0.16400
H294        H  0.06380313  0.13211625  0.81480335     0.16900
C295        C  0.40887035  0.28449382  0.19932893    -0.14700
C296        C  0.43003545  0.30761748  0.21213960     0.09300
C297        C  0.44679503  0.32471185  0.22820925     0.11200
C298        C  0.45784733  0.34328641  0.24172734    -0.15600
C299        C  0.36457580  0.03362597  0.24175872    -0.14700
C300        C  0.35800206  0.04497527  0.22821202     0.09300
C301        C  0.36215337  0.06333997  0.21213892     0.11200
C302        C  0.36548765  0.08716152  0.19937050    -0.15600
C303        C  0.17310541  0.13600435  0.24201715    -0.14700
C304        C  0.18889848  0.14254866  0.22832729     0.09300
C305        C  0.19869733  0.13721273  0.21205751     0.11200
C306        C  0.21687798  0.13322686  0.19907779    -0.15600
C307        C  0.15386000  0.49066870  0.33824418    -0.09500
C308        C  0.14356153  0.50570630  0.32546022    -0.11100
C309        C  0.01933211  0.16858070  0.33664530    -0.09500
C310        C  0.00556172  0.14388446  0.32378766    -0.11100
C311        C  0.34376847  0.35315742  0.33886976    -0.09500
C312        C  0.36792074  0.36321053  0.32592565    -0.11100
C313        C  0.28913166  0.49075618  0.42025363    -0.14700
C314        C  0.28834247  0.00872149  0.43324078     0.09300
C315        C  0.28646476  0.02274072  0.44939662     0.11200
C316        C  0.28737641  0.04507812  0.46219421    -0.15600
C317        C  0.44675556  0.23820817  0.46214229    -0.14700
C318        C  0.47159982  0.26145509  0.44960957     0.09300
C319        C  0.49010838  0.28092750  0.43373686     0.11200
C320        C  0.00961062  0.29526007  0.41959633    -0.15600
C321        C  0.25240376  0.20174427  0.46185770    -0.14700
C322        C  0.22899821  0.20274449  0.44930208     0.09300
C323        C  0.20996662  0.20226733  0.43339632     0.11200
C324        C  0.19909317  0.20839000  0.41975922    -0.15600
Zn325      Zn  0.10001855  0.74780648  0.38398426     1.49700
Zn326      Zn  0.25095552  0.85603581  0.38412845     1.49400
Zn327      Zn  0.16592862  0.83455665  0.35642570     1.49100
Zn328      Zn  0.14303152  0.89837217  0.38377593     1.49500
O329        O  0.16483674  0.83411519  0.37837527    -1.80400
O330        O  0.14041999  0.71095837  0.39878377    -0.71000
O331        O  0.30449077  0.86254552  0.36410957    -0.70800
O332        O  0.08155125  0.77748896  0.34733312    -0.70300
O333        O  0.24270473  0.79000881  0.39975373    -0.71000
O334        O  0.05194113  0.69569229  0.36371824    -0.70600
O335        O  0.22268888  0.80666231  0.34792156    -0.71200
O336        O  0.13511018  0.94237132  0.36317341    -0.70600
O337        O  0.28772065  0.93347120  0.39858918    -0.71300
O338        O  0.19482031  0.91958275  0.34768009    -0.70700
O339        O  0.21079362  0.95902619  0.39885037    -0.71200
O340        O  0.06656787  0.85768755  0.39897092    -0.71100
O341        O  0.04163481  0.75535580  0.39951055    -0.70900
C342        C  0.19618547  0.73799142  0.40504828     0.80900
C343        C  0.28200574  0.83501941  0.35084187     0.81400
C344        C  0.04809244  0.71843359  0.35037477     0.80400
C345        C  0.16391254  0.94805803  0.35005074     0.80700
C346        C  0.26189429  0.96362780  0.40442034     0.81900
C347        C  0.03695592  0.80167333  0.40503424     0.80900
Zn348      Zn  0.42627420  0.50224638  0.28941522     1.49700
Zn349      Zn  0.07817041  0.58586392  0.28975476     1.49400
Zn350      Zn  0.49509892  0.91905066  0.28994182     1.49100
Zn351      Zn  0.99876892  0.99812838  0.26011437     1.49500
O352        O  0.00069016  0.99724197  0.28208581    -1.80400
O353        O  0.94430785  0.57654443  0.30484992    -0.71000
O354        O  0.12362743  0.04819328  0.30446122    -0.70800
O355        O  0.42435757  0.87472855  0.30580100    -0.70300
O356        O  0.05139942  0.63615696  0.30373075    -0.71000
O357        O  0.36284365  0.91867070  0.30298101    -0.70600
O358        O  0.07897516  0.94243906  0.30166878    -0.71200
O359        O  0.46252467  0.91245005  0.25281162    -0.70600
O360        O  0.13145516  0.63225233  0.26929055    -0.71300
O361        O  0.48505498  0.85981199  0.27064557    -0.70700
O362        O  0.08871772  0.54501512  0.25448926    -0.71200
O363        O  0.46882196  0.56139623  0.25536542    -0.71100
O364        O  0.37893470  0.50520816  0.26877388    -0.70900
C365        C  0.99764498  0.62211876  0.30991579     0.80900
C366        C  0.11642768  0.99466986  0.30881971     0.81400
C367        C  0.37777306  0.88154459  0.31011279     0.80400
C368        C  0.46787486  0.86528132  0.25672916     0.80700
C369        C  0.12938317  0.60345364  0.25643216     0.81900
C370        C  0.40884502  0.53670242  0.25643312     0.80900
C371        C  0.17228876  0.83717537  0.83094123     0.49200
H372        H  0.17237217  0.83672595  0.84399032     0.00200
C373        C  0.17223206  0.83830598  0.80075293     0.49300
H374        H  0.17219296  0.83886794  0.78762499     0.00200
C375        C  0.14529284  0.88111610  0.82376853    -0.13500
C376        C  0.24322703  0.86432570  0.82354234    -0.13200
C377        C  0.12814145  0.76647574  0.82347861    -0.13600
C378        C  0.15036245  0.88207837  0.80760112    -0.13600
C379        C  0.23850626  0.85988533  0.80735772    -0.13200
C380        C  0.12775353  0.77177461  0.80732091    -0.13500
C381        C  0.50471732  0.50218987  0.83038582     0.49200
H382        H  0.50531188  0.00207209  0.81663351     0.00200
C383        C  0.50492417  0.50109980  0.86056404     0.49300
H384        H  0.00422635  0.50449407  0.87330268     0.00200
C385        C  0.03253863  0.57466239  0.83721173    -0.13500
C386        C  0.43507986  0.95876690  0.83721869    -0.13200
C387        C  0.04844874  0.97532145  0.83761234    -0.13600
C388        C  0.02734638  0.57023003  0.85337031    -0.13600
C389        C  0.44038536  0.95863029  0.85340015    -0.13200
C390        C  0.04816954  0.98024224  0.85379691    -0.13500
C391        C  0.16263465  0.82840106  0.52663338     0.49200
H392        H  0.16249756  0.82836331  0.53976080     0.00200
C393        C  0.16312694  0.82852651  0.49642097     0.49300
H394        H  0.16327158  0.82858843  0.48337077     0.00200
C395        C  0.19104659  0.89559013  0.51995264    -0.13500
C396        C  0.20114436  0.79989413  0.51997581    -0.13200
C397        C  0.09540385  0.78977996  0.51989723    -0.13600
C398        C  0.19554710  0.89986733  0.50377746    -0.13600
C399        C  0.20178144  0.79614350  0.50380121    -0.13200
C400        C  0.09148506  0.78956367  0.50371761    -0.13500
C401        C  0.33368401  0.66640632  0.46687403     0.49200
H402        H  0.33396079  0.66656888  0.45375649     0.00200
C403        C  0.33313482  0.66587510  0.49712182     0.49300
H404        H  0.33292908  0.66565125  0.51017181     0.00200
C405        C  0.30527047  0.59902132  0.47357727    -0.13500
C406        C  0.40102622  0.70565009  0.47368908    -0.13200
C407        C  0.29442496  0.69421060  0.47357627    -0.13600
C408        C  0.30071759  0.59464912  0.48973635    -0.13600
C409        C  0.40483628  0.70504838  0.48986064    -0.13200
C410        C  0.29421591  0.69807883  0.48976842    -0.13500
Zn411      Zn  0.33743634  0.66339252  0.59542603     1.49700
Zn412      Zn  0.26332591  0.58079067  0.62191801     1.49400
Zn413      Zn  0.41852594  0.67412202  0.62231394     1.49100
Zn414      Zn  0.32540376  0.73529586  0.62179271     1.49500
O415        O  0.33610905  0.66354614  0.61706902    -1.80400
O416        O  0.31324940  0.57940333  0.58712607    -0.71000
O417        O  0.29404084  0.53866125  0.63734301    -0.70800
O418        O  0.47145548  0.68495520  0.60150470    -0.70300
O419        O  0.22376160  0.52837431  0.60108918    -0.71000
O420        O  0.42179107  0.72313358  0.58719238    -0.70600
O421        O  0.40103849  0.60034971  0.63698574    -0.71200
O422        O  0.39976416  0.79487075  0.63595056    -0.70600
O423        O  0.20470822  0.59618135  0.63611769    -0.71300
O424        O  0.46006646  0.74892669  0.63749940    -0.70700
O425        O  0.25232862  0.70296307  0.63726595    -0.71200
O426        O  0.31031924  0.77374143  0.60104111    -0.71100
O427        O  0.27911408  0.68748967  0.58626217    -0.70900
C428        C  0.25580305  0.53470716  0.58850960     0.80900
C429        C  0.34925066  0.55450069  0.64278053     0.81400
C430        C  0.46571737  0.70992816  0.58872620     0.80400
C431        C  0.44466953  0.78929756  0.64229592     0.80700
C432        C  0.21152337  0.64740462  0.64228627     0.81900
C433        C  0.28711116  0.74274359  0.58817810     0.80900
Zn434      Zn  0.41652338  0.92265857  0.70572159     1.49700
Zn435      Zn  0.01598446  0.59004774  0.70612285     1.49400
Zn436      Zn  0.00351741  0.50779274  0.73527410     1.49100
Zn437      Zn  0.07195802  0.99456437  0.70678803     1.49500
O438        O  0.00391705  0.50657250  0.71301219    -1.80400
O439        O  0.37393214  0.45404400  0.69060224    -0.71000
O440        O  0.03185965  0.65352847  0.72496295    -0.70800
O441        O  0.42013233  0.93607536  0.74385240    -0.70300
O442        O  0.43313166  0.56091380  0.69140938    -0.71000
O443        O  0.35523379  0.87372177  0.72503041    -0.70600
O444        O  0.02091250  0.58715599  0.74421311    -0.71200
O445        O  0.11918126  0.98099259  0.72604636    -0.70600
O446        O  0.08701515  0.62618402  0.68992916    -0.71300
O447        O  0.06141696  0.99017608  0.74499235    -0.70700
O448        O  0.13230690  0.56558288  0.69161516    -0.71200
O449        O  0.54254426  0.91995672  0.68958371    -0.71100
O450        O  0.43561950  0.86747143  0.69121848    -0.70900
C451        C  0.38883744  0.50915503  0.68532103     0.80900
C452        C  0.03143233  0.64089106  0.73961976     0.81400
C453        C  0.36749635  0.88931885  0.73958003     0.80400
C454        C  0.10563508  0.98071563  0.74063876     0.80700
C455        C  0.12591187  0.60923263  0.68494582     0.81900
C456        C  0.48743892  0.87746396  0.68466396     0.80900
C457        C  0.33194035  0.66576373  0.19558699     0.49200
H458        H  0.33163691  0.66476082  0.20870853     0.00200
C459        C  0.33243816  0.66777298  0.16536427     0.49300
H460        H  0.33252494  0.66853564  0.15231551     0.00200
C461        C  0.26511150  0.64038592  0.18886083    -0.13500
C462        C  0.37317819  0.73317660  0.18909567    -0.13200
C463        C  0.35800329  0.62552689  0.18864295    -0.13600
C464        C  0.26116835  0.63657068  0.17269825    -0.13600
C465        C  0.37290567  0.73851142  0.17294350    -0.13200
C466        C  0.36302153  0.62715460  0.17247835    -0.13500
C467        C  0.99901083  0.50098425  0.16591397     0.49200
H468        H  0.49732125  0.50041711  0.17833796     0.00200
C469        C  0.99998712  0.50041764  0.13569443     0.49300
H470        H  0.00030536  0.50016939  0.12256723     0.00200
C471        C  0.46136223  0.92941960  0.15903297    -0.13500
C472        C  0.46361181  0.53858509  0.15809678    -0.13200
C473        C  0.07081355  0.53576176  0.15866841    -0.13600
C474        C  0.46173568  0.93301480  0.14283637    -0.13600
C475        C  0.46767807  0.53914173  0.14191584    -0.13200
C476        C  0.06725512  0.53179565  0.14247761    -0.13500
Zn477      Zn  0.09864061  0.74352240  0.95511201     1.49700
Zn478      Zn  0.25473040  0.84011082  0.95534286     1.49400
Zn479      Zn  0.17125911  0.82833711  0.92630089     1.49100
Zn480      Zn  0.15903956  0.89930431  0.95510216     1.49500
O481        O  0.17091768  0.82757735  0.94854923    -1.80400
O482        O  0.13255981  0.70353062  0.97047991    -0.71000
O483        O  0.31849831  0.85948147  0.93612718    -0.70800
O484        O  0.11103423  0.74884895  0.91699259    -0.70300
O485        O  0.23926214  0.76559643  0.96948618    -0.71000
O486        O  0.04843462  0.68388016  0.93579645    -0.70600
O487        O  0.25163366  0.85018506  0.91710424    -0.71200
O488        O  0.14408213  0.94659866  0.93606102    -0.70600
O489        O  0.28954034  0.90940405  0.97212900    -0.71300
O490        O  0.15030248  0.88749682  0.91706487    -0.70700
O491        O  0.23038260  0.95615322  0.97024106    -0.71200
O492        O  0.08692959  0.86544253  0.97083545    -0.71100
O493        O  0.04377319  0.75926836  0.97049397    -0.70900
C494        C  0.18832455  0.72011588  0.97565933     0.80900
C495        C  0.30587823  0.86127631  0.92152407     0.81400
C496        C  0.06390929  0.69647088  0.92125797     0.80400
C497        C  0.14145659  0.93192575  0.92148167     0.80700
C498        C  0.27296211  0.94853997  0.97714412     0.81900
C499        C  0.04915904  0.81014193  0.97644527     0.80900
Zn500      Zn  0.34094078  0.66978506  0.06677988     1.49700
Zn501      Zn  0.25677590  0.59578353  0.04041158     1.49400
Zn502      Zn  0.34575206  0.75077051  0.04022086     1.49100
Zn503      Zn  0.41306129  0.66389556  0.04003953     1.49500
O504        O  0.33857631  0.66987804  0.04516620    -1.80400
O505        O  0.25820785  0.64232377  0.07628237    -0.71000
O506        O  0.21531948  0.62470835  0.02416728    -0.70800
O507        O  0.35570129  0.80111290  0.06142318    -0.70300
O508        O  0.20292630  0.55634831  0.06133462    -0.71000
O509        O  0.39938084  0.75466122  0.07500543    -0.70600
O510        O  0.27141829  0.73167021  0.02549592    -0.71200
O511        O  0.46824927  0.73789888  0.02543317    -0.70600
O512        O  0.27492465  0.53844193  0.02649770    -0.71300
O513        O  0.41894819  0.79505663  0.02460584    -0.70700
O514        O  0.38212503  0.59118821  0.02455816    -0.71200
O515        O  0.45681641  0.65450793  0.06065034    -0.71100
O516        O  0.36773667  0.61201066  0.07473452    -0.70900
C517        C  0.21092456  0.58669036  0.07432310     0.80900
C518        C  0.22933167  0.67964873  0.01893790     0.81400
C519        C  0.38272337  0.79624709  0.07395427     0.80400
C520        C  0.45953060  0.78093902  0.01922069     0.80700
C521        C  0.32667109  0.54875598  0.01977990     0.81900
C522        C  0.42580618  0.62783121  0.07330916     0.80900
C523        C  0.20369312  0.68352420  0.00384987    -0.09500
C524        C  0.19375297  0.69353735  0.99044067    -0.11100
C525        C  0.29689114  0.97933689  0.99220516    -0.09500
C526        C  0.32185037  0.51858966  0.00482198    -0.11100
C527        C  0.48940999  0.80690623  0.00419840    -0.09500
C528        C  0.01805837  0.80569971  0.99124240    -0.11100
C529        C  0.42773223  0.88292544  0.13130036    -0.14700
C530        C  0.40941360  0.86097386  0.11826071     0.09300
C531        C  0.39694801  0.84704617  0.10193175     0.11200
C532        C  0.38987707  0.83185052  0.08816165    -0.15600
C533        C  0.45484325  0.62009368  0.08730025    -0.14700
C534        C  0.46074093  0.61188765  0.10112732     0.09300
C535        C  0.45729911  0.59742883  0.11746155     0.11200
C536        C  0.45608117  0.57657554  0.13050070    -0.15600
C537        C  0.11730402  0.54755088  0.13094755    -0.14700
C538        C  0.13926211  0.55059515  0.11793745     0.09300
C539        C  0.15397343  0.55135726  0.10167642     0.11200
C540        C  0.17112003  0.55895571  0.08803870    -0.15600
C541        C  0.43285603  0.57111658  0.16788749    -0.12700
C542        C  0.39334373  0.59429754  0.16265355    -0.27800
H543        H  0.44401944  0.57522674  0.18029595     0.16400
H544        H  0.38238096  0.59048062  0.15023627     0.16900
C545        C  0.42934329  0.86550150  0.16880132    -0.12700
C546        C  0.40644778  0.80281520  0.16343157    -0.27800
H547        H  0.42514847  0.87180614  0.18125906     0.16400
H548        H  0.41056676  0.79621559  0.15101447     0.16900
C549        C  0.19738771  0.60721802  0.16306323    -0.12700
C550        C  0.13457392  0.56704528  0.16839399    -0.27800
H551        H  0.20428274  0.61916457  0.15070260     0.16400
H552        H  0.12798101  0.55525603  0.18078127     0.16900
C553        C  0.36197313  0.51364220  0.67056263    -0.09500
C554        C  0.35288586  0.52576112  0.65732019    -0.11100
C555        C  0.47227272  0.82327107  0.65679256    -0.09500
C556        C  0.48302656  0.84559631  0.66995422    -0.11100
C557        C  0.17854082  0.64255027  0.65679754    -0.09500
C558        C  0.15725127  0.63359940  0.67003338    -0.11100
C559        C  0.20090240  0.94389485  0.53146605    -0.14700
C560        C  0.19904639  0.96309704  0.54452120     0.09300
C561        C  0.19618836  0.97443462  0.56087167     0.11200
C562        C  0.22776047  0.49709690  0.57457122    -0.15600
C563        C  0.04552828  0.75643827  0.53151242    -0.14700
C564        C  0.02414931  0.74013595  0.54466523     0.09300
C565        C  0.01090908  0.73057172  0.56105594     0.11200
C566        C  0.50312932  0.71862319  0.57476210    -0.15600
C567        C  0.23469955  0.78419637  0.53163200    -0.14700
C568        C  0.25235776  0.78017578  0.54469758     0.09300
C569        C  0.26500282  0.77804425  0.56096319     0.11200
C570        C  0.27419597  0.76976228  0.57454780    -0.15600
C571        C  0.27012458  0.53042384  0.49932981    -0.12700
C572        C  0.22575440  0.96380214  0.49411169    -0.27800
H573        H  0.28103385  0.53723446  0.51174329     0.16400
H574        H  0.21471224  0.95680542  0.48170128     0.16900
C575        C  0.02755160  0.75631219  0.49403884    -0.12700
C576        C  0.46902212  0.73783990  0.49953776    -0.27800
H577        H  0.03430383  0.75170271  0.48164466     0.16400
H578        H  0.46253337  0.74234055  0.51195620     0.16900
C579        C  0.23548523  0.76602389  0.49414675    -0.12700
C580        C  0.26036692  0.72797428  0.49946092    -0.27800
H581        H  0.23906678  0.77664133  0.48172121     0.16400
H582        H  0.25695427  0.71748641  0.51189268     0.16900
C583        C  0.35059653  0.87642338  0.90876112    -0.14700
C584        C  0.36679305  0.88707357  0.89505064     0.09300
C585        C  0.37638881  0.90091977  0.87861243     0.11200
C586        C  0.39340409  0.92045054  0.86530458    -0.15600
C587        C  0.08486841  0.96954296  0.86567775    -0.14700
C588        C  0.10405311  0.96967268  0.87888616     0.09300
C589        C  0.11794482  0.97089975  0.89524163     0.11200
C590        C  0.12811276  0.96304339  0.90880903    -0.15600
C591        C  0.03023067  0.65423985  0.90837587    -0.14700
C592        C  0.02321746  0.64028189  0.89453604     0.09300
C593        C  0.02840362  0.63299130  0.87807584     0.11200
C594        C  0.03309643  0.61687246  0.86487917    -0.15600
C595        C  0.28431637  0.86379215  0.79572482    -0.14700
C596        C  0.30047122  0.85779990  0.78260410     0.09300
C597        C  0.30903725  0.85127139  0.76623192     0.11200
C598        C  0.32425023  0.85693366  0.75245434    -0.15600
C599        C  0.13748437  0.96869052  0.75336505    -0.14700
C600        C  0.14574584  0.95860807  0.76689237     0.09300
C601        C  0.14413670  0.94338043  0.78313732     0.11200
C602        C  0.14262204  0.92192417  0.79612248    -0.15600
C603        C  0.04377794  0.68523212  0.75223568    -0.14700
C604        C  0.05304010  0.70088197  0.76596573     0.09300
C605        C  0.06665013  0.70926796  0.78238448     0.11200
C606        C  0.08732622  0.72542552  0.79561600    -0.15600
C607        C  0.08253782  0.94527815  0.82803796    -0.12700
C608        C  0.11566995  0.91520573  0.83350899    -0.27800
H609        H  0.07661074  0.94638970  0.81547312     0.16400
H610        H  0.11967942  0.91193295  0.84608564     0.16900
C611        C  0.37067187  0.92515952  0.82764016    -0.12700
C612        C  0.30729966  0.89257464  0.83318747    -0.27800
H613        H  0.37747781  0.93129482  0.81505990     0.16400
H614        H  0.30026950  0.88835378  0.84577670     0.16900
C615        C  0.09375251  0.70210268  0.83304711    -0.12700
C616        C  0.06199068  0.63872911  0.82751234    -0.27800
H617        H  0.09869405  0.70906759  0.84562966     0.16400
H618        H  0.05930869  0.63176983  0.81491755     0.16900
C619        C  0.41228677  0.78049114  0.20075083    -0.14700
C620        C  0.43322575  0.79745809  0.21392180     0.09300
C621        C  0.44772106  0.80639106  0.23027737     0.11200
C622        C  0.45717641  0.82199082  0.24399660    -0.15600
C623        C  0.37717986  0.54053602  0.24244418    -0.14700
C624        C  0.36851108  0.54840658  0.22877449     0.09300
C625        C  0.36875003  0.56436179  0.21263774     0.11200
C626        C  0.36844769  0.58666604  0.19988998    -0.15600
C627        C  0.16781375  0.63510348  0.24278985    -0.14700
C628        C  0.18393481  0.64175131  0.22909341     0.09300
C629        C  0.19700279  0.63734466  0.21295317     0.11200
C630        C  0.21718110  0.63360152  0.20018039    -0.15600
C631        C  0.15623206  0.97973113  0.33657028    -0.09500
C632        C  0.14441023  0.99154290  0.32356208    -0.11100
C633        C  0.01220706  0.67808648  0.33734993    -0.09500
C634        C  0.99882436  0.65331277  0.32447311    -0.11100
C635        C  0.32250282  0.84162790  0.33774580    -0.09500
C636        C  0.34654262  0.85335778  0.32480085    -0.11100
C637        C  0.28391373  0.99482425  0.41943190    -0.14700
C638        C  0.29390884  0.50719376  0.43388591     0.09300
C639        C  0.29253526  0.52510083  0.44974959     0.11200
C640        C  0.29343799  0.54950660  0.46225347    -0.15600
C641        C  0.45138092  0.74293223  0.46240576    -0.14700
C642        C  0.47692399  0.76595387  0.44992794     0.09300
C643        C  0.49638309  0.78473350  0.43408332     0.11200
C644        C  0.00506966  0.79162453  0.42003609    -0.15600
C645        C  0.25779973  0.70719926  0.46213506    -0.14700
C646        C  0.23538960  0.70947212  0.44954338     0.09300
C647        C  0.21695434  0.70968593  0.43362150     0.11200
C648        C  0.20554825  0.71535593  0.42000042    -0.15600
Zn649      Zn  0.59888892  0.24610188  0.38378793     1.49700
Zn650      Zn  0.75100454  0.35208492  0.38325045     1.49400
Zn651      Zn  0.66156019  0.33215185  0.35491977     1.49100
Zn652      Zn  0.64624518  0.39881810  0.38421249     1.49500
O653        O  0.66443461  0.33240053  0.37720027    -1.80400
O654        O  0.63887946  0.20925185  0.39863781    -0.71000
O655        O  0.80537545  0.35711556  0.36354294    -0.70800
O656        O  0.58267928  0.26375751  0.34601538    -0.70300
O657        O  0.74219868  0.28536508  0.39871156    -0.71000
O658        O  0.54636138  0.18880751  0.36454518    -0.70600
O659        O  0.72940348  0.32357852  0.34523063    -0.71200
O660        O  0.64466073  0.45458890  0.36524167    -0.70600
O661        O  0.79091211  0.42817969  0.39843493    -0.71300
O662        O  0.67060715  0.40975633  0.34602329    -0.70700
O663        O  0.71293836  0.45157236  0.40036446    -0.71200
O664        O  0.56855611  0.35867280  0.39900045    -0.71100
O665        O  0.54302852  0.25619598  0.39961773    -0.70900
C666        C  0.69529219  0.23479302  0.40443433     0.80900
C667        C  0.78583467  0.34029226  0.34937834     0.81400
C668        C  0.54523961  0.20706760  0.35043786     0.80400
C669        C  0.65873095  0.45191836  0.35079858     0.80700
C670        C  0.76464805  0.45596675  0.40533612     0.81900
C671        C  0.53875118  0.30276939  0.40511060     0.80900
Zn672      Zn  0.92259646  0.99646884  0.28867121     1.49700
Zn673      Zn  0.57258674  0.07513528  0.28966118     1.49400
Zn674      Zn  0.00204760  0.43017858  0.28930393     1.49100
Zn675      Zn  0.50415944  0.50976051  0.26285446     1.49500
O676        O  0.50642938  0.50740733  0.28438940    -1.80400
O677        O  0.43885599  0.06515007  0.30504128    -0.71000
O678        O  0.62882370  0.56314315  0.30593717    -0.70800
O679        O  0.93011264  0.38082558  0.30462847    -0.70300
O680        O  0.54586199  0.12423636  0.30410767    -0.71000
O681        O  0.87080412  0.42776410  0.30323577    -0.70600
O682        O  0.58790228  0.45770655  0.30290786    -0.71200
O683        O  0.95404052  0.42368214  0.25369064    -0.70600
O684        O  0.62890469  0.12485398  0.26982246    -0.71300
O685        O  0.99454956  0.37808291  0.26880230    -0.70700
O686        O  0.58280646  0.04377118  0.25303305    -0.71200
O687        O  0.94472248  0.02660450  0.25129193    -0.71100
O688        O  0.87064140  0.00405352  0.26950361    -0.70900
C689        C  0.49212587  0.10972241  0.31036888     0.80900
C690        C  0.62284096  0.51010847  0.31035537     0.81400
C691        C  0.88440578  0.38809549  0.30950143     0.80400
C692        C  0.96890517  0.38124960  0.25587295     0.80700
C693        C  0.62609763  0.10001538  0.25628976     0.81900
C694        C  0.89200410  0.02051988  0.25543761     0.80900
C695        C  0.67040499  0.33542931  0.83064731     0.49200
H696        H  0.67030920  0.33518573  0.84369720     0.00200
C697        C  0.67044531  0.33574525  0.80045793     0.49300
H698        H  0.67061752  0.33594625  0.78732943     0.00200
C699        C  0.64224723  0.37815504  0.82335371    -0.13500
C700        C  0.74162129  0.36389138  0.82335453    -0.13200
C701        C  0.62739639  0.26438343  0.82322454    -0.13600
C702        C  0.64668068  0.37821089  0.80716849    -0.13600
C703        C  0.73702199  0.35929657  0.80719326    -0.13200
C704        C  0.62701924  0.26905979  0.80703595    -0.13500
C705        C  0.00591137  0.00340072  0.83006607     0.49200
H706        H  0.00528356  0.50321826  0.81694842     0.00200
C707        C  0.00593344  0.00476791  0.86025874     0.49300
H708        H  0.50808380  0.00194382  0.87299219     0.00200
C709        C  0.53424375  0.07302782  0.83706200    -0.13500
C710        C  0.93369470  0.45992800  0.83728731    -0.13200
C711        C  0.54766777  0.47408708  0.83752868    -0.13600
C712        C  0.53047599  0.06837029  0.85325099    -0.13600
C713        C  0.93815459  0.46005042  0.85346518    -0.13200
C714        C  0.54799551  0.47838149  0.85369065    -0.13500
C715        C  0.66309860  0.32612375  0.52673082     0.49200
H716        H  0.66292143  0.32547755  0.53985667     0.00200
C717        C  0.66327127  0.32741841  0.49652184     0.49300
H718        H  0.66341198  0.32807415  0.48347246     0.00200
C719        C  0.69235517  0.39369991  0.52026856    -0.13500
C720        C  0.70161062  0.29792691  0.51990867    -0.13200
C721        C  0.59576335  0.28794184  0.51994782    -0.13600
C722        C  0.69629309  0.39843508  0.50407791    -0.13600
C723        C  0.70179207  0.29451795  0.50370891    -0.13200
C724        C  0.59162978  0.28855791  0.50379082    -0.13500
C725        C  0.83308973  0.16478526  0.46643151     0.49200
H726        H  0.83318642  0.16466266  0.45331414     0.00200
C727        C  0.83274360  0.16473768  0.49668005     0.49300
H728        H  0.83264093  0.16468491  0.50973056     0.00200
C729        C  0.80549870  0.09759197  0.47320664    -0.13500
C730        C  0.90043947  0.20470890  0.47319932    -0.13200
C731        C  0.79346691  0.19225682  0.47312662    -0.13600
C732        C  0.80102365  0.09357054  0.48936513    -0.13600
C733        C  0.90421472  0.20431631  0.48939857    -0.13200
C734        C  0.79341664  0.19634276  0.48932288    -0.13500
Zn735      Zn  0.84089548  0.17111001  0.59587161     1.49700
Zn736      Zn  0.76263044  0.08654872  0.62192850     1.49400
Zn737      Zn  0.91827630  0.17843769  0.62285432     1.49100
Zn738      Zn  0.82592097  0.24105937  0.62237510     1.49500
O739        O  0.83634818  0.16922092  0.61751933    -1.80400
O740        O  0.81691461  0.08777188  0.58707892    -0.71000
O741        O  0.79170625  0.04469028  0.63798588    -0.70800
O742        O  0.97081132  0.18673128  0.60195572    -0.70300
O743        O  0.72649457  0.03500671  0.60068574    -0.71000
O744        O  0.92651348  0.23192371  0.58833490    -0.70600
O745        O  0.89887382  0.10472700  0.63761990    -0.71200
O746        O  0.89953706  0.29836791  0.63705314    -0.70600
O747        O  0.70192343  0.10144630  0.63563679    -0.71300
O748        O  0.96049780  0.25301692  0.63824369    -0.70700
O749        O  0.75113453  0.20812746  0.63759221    -0.71200
O750        O  0.81412600  0.28153342  0.60138143    -0.71100
O751        O  0.78406060  0.19598282  0.58641808    -0.70900
C752        C  0.75964175  0.04235740  0.58822142     0.80900
C753        C  0.84667082  0.06022899  0.64357406     0.81400
C754        C  0.96714537  0.21407486  0.58936160     0.80400
C755        C  0.94453270  0.29268198  0.64331460     0.80700
C756        C  0.70897097  0.15221968  0.64216365     0.81900
C757        C  0.79245196  0.25134457  0.58833129     0.80900
Zn758      Zn  0.92039157  0.43414683  0.70620502     1.49700
Zn759      Zn  0.50609804  0.07960370  0.70570387     1.49400
Zn760      Zn  0.49936602  0.99780648  0.73461153     1.49100
Zn761      Zn  0.57278848  0.49020203  0.70503548     1.49500
O762        O  0.49882625  0.99783833  0.71233067    -1.80400
O763        O  0.87355032  0.96429096  0.69172288    -0.71000
O764        O  0.51910523  0.14074638  0.72510829    -0.70800
O765        O  0.92399498  0.44575812  0.74435305    -0.70300
O766        O  0.93616324  0.07076607  0.69190031    -0.71000
O767        O  0.85947207  0.38465590  0.72529775    -0.70600
O768        O  0.51767495  0.07690647  0.74397133    -0.71200
O769        O  0.61736315  0.47942771  0.72533517    -0.70600
O770        O  0.57783614  0.12047517  0.68953366    -0.71300
O771        O  0.53526592  0.45010044  0.74159434    -0.70700
O772        O  0.62905561  0.06547015  0.69106181    -0.71200
O773        O  0.04301795  0.42050979  0.69122046    -0.71100
O774        O  0.93682741  0.37860031  0.69120808    -0.70900
C775        C  0.88968140  0.01934857  0.68624291     0.80900
C776        C  0.52347873  0.12918418  0.73966175     0.81400
C777        C  0.87144497  0.39934965  0.73987831     0.80400
C778        C  0.59043921  0.45900739  0.73879228     0.80700
C779        C  0.61973340  0.10755160  0.68452268     0.81900
C780        C  0.98763089  0.38255379  0.68556114     0.80900
C781        C  0.83263782  0.16792350  0.19568541     0.49200
H782        H  0.83303914  0.16827662  0.20880829     0.00200
C783        C  0.83202821  0.16739465  0.16545936     0.49300
H784        H  0.83170908  0.16717507  0.15240907     0.00200
C785        C  0.76553334  0.14221962  0.18907267    -0.13500
C786        C  0.87385646  0.23467954  0.18885129    -0.13200
C787        C  0.85755905  0.12632731  0.18896070    -0.13600
C788        C  0.76097735  0.13710366  0.17290641    -0.13600
C789        C  0.87304908  0.23866197  0.17271134    -0.13200
C790        C  0.86225134  0.12675768  0.17278575    -0.13500
C791        C  0.49842664  0.00125128  0.16620522     0.49200
H792        H  0.99758969  0.99969801  0.17856303     0.00200
C793        C  0.49895977  0.00014253  0.13599326     0.49300
H794        H  0.49913731  0.99957848  0.12286632     0.00200
C795        C  0.96252437  0.42934261  0.15866235    -0.13500
C796        C  0.96221809  0.03691457  0.15843326    -0.13200
C797        C  0.57017130  0.03565578  0.15893512    -0.13600
C798        C  0.96370932  0.43318739  0.14248328    -0.13600
C799        C  0.96548900  0.03689297  0.14222953    -0.13200
C800        C  0.56634015  0.03143150  0.14274303    -0.13500
Zn801      Zn  0.60093176  0.25145620  0.95485621     1.49700
Zn802      Zn  0.75600394  0.35198378  0.95500830     1.49400
Zn803      Zn  0.67096153  0.33643795  0.92605325     1.49100
Zn804      Zn  0.65649766  0.40634324  0.95485268     1.49500
O805        O  0.67112208  0.33656180  0.94825809    -1.80400
O806        O  0.63643542  0.21685914  0.97115268    -0.71000
O807        O  0.81804113  0.36656747  0.93589983    -0.70800
O808        O  0.61225709  0.25591275  0.91684079    -0.70300
O809        O  0.74269450  0.28154976  0.97014531    -0.71000
O810        O  0.55563901  0.18806744  0.93582656    -0.70600
O811        O  0.75133144  0.35776235  0.91689434    -0.71200
O812        O  0.64204877  0.45349326  0.93581409    -0.70600
O813        O  0.79253660  0.42456600  0.97079942    -0.71300
O814        O  0.65003307  0.39524513  0.91683019    -0.70700
O815        O  0.72704300  0.46441684  0.96992013    -0.71200
O816        O  0.58385060  0.36981883  0.97051587    -0.71100
O817        O  0.54144419  0.26376480  0.96930870    -0.70900
C818        C  0.69245554  0.23609057  0.97652052     0.80900
C819        C  0.80512147  0.36747592  0.92130469     0.81400
C820        C  0.56940975  0.20130092  0.92123935     0.80400
C821        C  0.64079335  0.43942355  0.92124040     0.80700
C822        C  0.77316891  0.46096768  0.97617123     0.81900
C823        C  0.54603482  0.31363963  0.97566407     0.80900
Zn824      Zn  0.83716000  0.16591577  0.06614074     1.49700
Zn825      Zn  0.74980722  0.09926640  0.03994363     1.49400
Zn826      Zn  0.85357183  0.25202550  0.03999125     1.49100
Zn827      Zn  0.90339105  0.15024056  0.03936924     1.49500
O828        O  0.83555803  0.16678737  0.04451938    -1.80400
O829        O  0.75678361  0.14910188  0.07546083    -0.71000
O830        O  0.71378509  0.13689005  0.02459707    -0.70800
O831        O  0.86929591  0.30307534  0.06114071    -0.70300
O832        O  0.69672752  0.06284146  0.06104110    -0.71000
O833        O  0.90351883  0.24761317  0.07453429    -0.70600
O834        O  0.78214020  0.24265674  0.02562345    -0.71200
O835        O  0.96375833  0.22179641  0.02454967    -0.70600
O836        O  0.75877109  0.03703727  0.02551625    -0.71300
O837        O  0.92805726  0.29092540  0.02475177    -0.70700
O838        O  0.86467183  0.07504720  0.02440899    -0.71200
O839        O  0.94289960  0.13690143  0.06027151    -0.71100
O840        O  0.85306232  0.09978210  0.07386181    -0.70900
C841        C  0.70747286  0.09452482  0.07390580     0.80900
C842        C  0.73442724  0.19348547  0.01945543     0.81400
C843        C  0.89381647  0.29407830  0.07357810     0.80400
C844        C  0.96336293  0.27073236  0.01903849     0.80700
C845        C  0.80778206  0.03838431  0.01938261     0.81900
C846        C  0.91013492  0.11182150  0.07282720     0.80900
C847        C  0.70921901  0.20134736  0.00478262    -0.09500
C848        C  0.69882742  0.21173674  0.99148829    -0.11100
C849        C  0.79779876  0.49236024  0.99109087    -0.09500
C850        C  0.79958340  0.00432754  0.00484555    -0.11100
C851        C  0.99750693  0.29886766  0.00458147    -0.09500
C852        C  0.51457310  0.30669770  0.99053354    -0.11100
C853        C  0.93403968  0.38284167  0.13089056    -0.14700
C854        C  0.91977102  0.36042621  0.11779994     0.09300
C855        C  0.91100983  0.34616715  0.10147482     0.11200
C856        C  0.90472221  0.33053910  0.08777355    -0.15600
C857        C  0.93691496  0.10302616  0.08710925    -0.14700
C858        C  0.94410994  0.09674896  0.10098014     0.09300
C859        C  0.94490294  0.08642187  0.11744998     0.11200
C860        C  0.94853365  0.06979216  0.13067310    -0.15600
C861        C  0.61651272  0.05019307  0.13109182    -0.14700
C862        C  0.63847699  0.05643459  0.11795970     0.09300
C863        C  0.65273266  0.06021820  0.10160058     0.11200
C864        C  0.66900895  0.06875491  0.08790008    -0.15600
C865        C  0.93088507  0.06899935  0.16829665    -0.12700
C866        C  0.89174702  0.09272742  0.16306868    -0.27800
H867        H  0.94160280  0.07283523  0.18074106     0.16400
H868        H  0.88090108  0.08915541  0.15065811     0.16900
C869        C  0.93022276  0.36541874  0.16836546    -0.12700
C870        C  0.90655730  0.30250934  0.16304180    -0.27800
H871        H  0.92606152  0.37216547  0.18078372     0.16400
H872        H  0.91014106  0.29532838  0.15064116     0.16900
C873        C  0.69701825  0.10699778  0.16329793    -0.12700
C874        C  0.63406669  0.06770646  0.16866908    -0.27800
H875        H  0.70405774  0.11761806  0.15087825     0.16400
H876        H  0.62743505  0.05724029  0.18112376     0.16900
C877        C  0.86107312  0.02332538  0.67170950    -0.09500
C878        C  0.85013057  0.03326471  0.65842571    -0.11100
C879        C  0.97182867  0.32608562  0.65793384    -0.09500
C880        C  0.98258077  0.34911182  0.67104075    -0.11100
C881        C  0.67446364  0.14593730  0.65659436    -0.09500
C882        C  0.65171683  0.13480663  0.66974160    -0.11100
C883        C  0.70758639  0.44270033  0.53207461    -0.14700
C884        C  0.71112402  0.46427261  0.54517038     0.09300
C885        C  0.71309885  0.47966820  0.56144564     0.11200
C886        C  0.73309899  0.00453298  0.57417849    -0.15600
C887        C  0.54620896  0.25254371  0.53146542    -0.14700
C888        C  0.52605826  0.23424182  0.54461459     0.09300
C889        C  0.51412835  0.22241557  0.56099044     0.11200
C890        C  0.00223448  0.21991544  0.57505829    -0.15600
C891        C  0.73787638  0.28500812  0.53142802    -0.14700
C892        C  0.75773319  0.28420000  0.54447919     0.09300
C893        C  0.77195324  0.28542997  0.56079102     0.11200
C894        C  0.78121439  0.27884946  0.57451278    -0.15600
C895        C  0.77135077  0.02977877  0.49905585    -0.12700
C896        C  0.72678088  0.46243870  0.49449613    -0.27800
H897        H  0.78270220  0.03705003  0.51144055     0.16400
H898        H  0.71505517  0.45563948  0.48211906     0.16900
C899        C  0.52750638  0.25616148  0.49409309    -0.12700
C900        C  0.96792275  0.23727190  0.49918543    -0.27800
H901        H  0.53431213  0.25210749  0.48167489     0.16400
H902        H  0.96101653  0.24101647  0.51161933     0.16900
C903        C  0.73531682  0.26470288  0.49388083    -0.12700
C904        C  0.75973980  0.22618269  0.49908045    -0.27800
H905        H  0.73896763  0.27566084  0.48146871     0.16400
H906        H  0.75612122  0.21533820  0.51149829     0.16900
C907        C  0.84892236  0.37941335  0.90855566    -0.14700
C908        C  0.86462400  0.38783927  0.89482115     0.09300
C909        C  0.87382784  0.40050768  0.87837214     0.11200
C910        C  0.89095302  0.42046018  0.86512624    -0.15600
C911        C  0.58777857  0.47083384  0.86517294    -0.14700
C912        C  0.60804616  0.47404398  0.87836867     0.09300
C913        C  0.62074120  0.47815056  0.89479075     0.11200
C914        C  0.62906610  0.47121030  0.90852687    -0.15600
C915        C  0.53931456  0.15684943  0.90850211    -0.14700
C916        C  0.53327255  0.14107851  0.89478597     0.09300
C917        C  0.53725869  0.13219347  0.87834457     0.11200
C918        C  0.53955670  0.11537595  0.86504381    -0.15600
C919        C  0.78421335  0.36649571  0.79566212    -0.14700
C920        C  0.80186430  0.36292531  0.78256426     0.09300
C921        C  0.81165735  0.35860779  0.76621836     0.11200
C922        C  0.82775372  0.36591918  0.75253073    -0.15600
C923        C  0.62177129  0.45008470  0.75216056    -0.14700
C924        C  0.63126085  0.44332805  0.76584739     0.09300
C925        C  0.63256533  0.43217430  0.78226172     0.11200
C926        C  0.63449538  0.41425970  0.79546294    -0.15600
C927        C  0.53595538  0.17316426  0.75245895    -0.14700
C928        C  0.54741762  0.19078962  0.76606799     0.09300
C929        C  0.56435499  0.20317575  0.78232472     0.11200
C930        C  0.58671639  0.22193018  0.79535720    -0.15600
C931        C  0.58180732  0.44473237  0.82773552    -0.12700
C932        C  0.61225276  0.41184500  0.83309857    -0.27800
H933        H  0.57823152  0.44885728  0.81518020     0.16400
H934        H  0.61377829  0.40595137  0.84565773     0.16900
C935        C  0.86949451  0.42534328  0.82759215    -0.12700
C936        C  0.80584408  0.39361194  0.83304779    -0.27800
H937        H  0.87681721  0.42994000  0.81501676     0.16400
H938        H  0.79859541  0.39104711  0.84562618     0.16900
C939        C  0.59369757  0.20032634  0.83288145    -0.12700
C940        C  0.56319237  0.13699912  0.82738847    -0.27800
H941        H  0.59789501  0.20756432  0.84545731     0.16400
H942        H  0.56103145  0.12995837  0.81480375     0.16900
C943        C  0.91224698  0.28399066  0.20016215    -0.14700
C944        C  0.93411434  0.30658890  0.21292553     0.09300
C945        C  0.95020604  0.32276159  0.22899583     0.11200
C946        C  0.95987885  0.34124947  0.24248661    -0.15600
C947        C  0.85832746  0.03086478  0.24286374    -0.14700
C948        C  0.85191291  0.04235928  0.22931027     0.09300
C949        C  0.85783591  0.06066460  0.21317592     0.11200
C950        C  0.86309395  0.08472511  0.20033267    -0.15600
C951        C  0.66775852  0.13392299  0.24327626    -0.14700
C952        C  0.68504917  0.14152954  0.22965194     0.09300
C953        C  0.69806900  0.13778762  0.21345284     0.11200
C954        C  0.71776454  0.13463711  0.20055126    -0.15600
C955        C  0.65690614  0.49215249  0.33853484    -0.09500
C956        C  0.64853742  0.50715061  0.32550989    -0.11100
C957        C  0.50694234  0.16386469  0.33809570    -0.09500
C958        C  0.49310263  0.13917182  0.32520912    -0.11100
C959        C  0.82768075  0.34529555  0.33677291    -0.09500
C960        C  0.85275068  0.35748140  0.32395274    -0.11100
C961        C  0.78760337  0.48540179  0.42055637    -0.14700
C962        C  0.79846802  0.00558670  0.43384104     0.09300
C963        C  0.79604043  0.02375468  0.44962514     0.11200
C964        C  0.79552413  0.04821668  0.46201252    -0.15600
C965        C  0.95042197  0.24220630  0.46181330    -0.14700
C966        C  0.97481903  0.26499821  0.44919869     0.09300
C967        C  0.99288382  0.28364422  0.43324718     0.11200
C968        C  0.50699947  0.29308130  0.42011683    -0.15600
C969        C  0.75703526  0.20538355  0.46165701    -0.14700
C970        C  0.73502482  0.20757695  0.44899578     0.09300
C971        C  0.71685494  0.20743342  0.43302804     0.11200
C972        C  0.70525629  0.21265295  0.41939161    -0.15600
Zn973      Zn  0.60283511  0.74583063  0.38409035     1.49700
Zn974      Zn  0.75632359  0.84911798  0.38434628     1.49400
Zn975      Zn  0.67235221  0.83327382  0.35530028     1.49100
Zn976      Zn  0.65286453  0.89848696  0.38421419     1.49500
O977        O  0.67117660  0.83163614  0.37759075    -1.80400
O978        O  0.63969187  0.70555496  0.39873440    -0.71000
O979        O  0.81438858  0.85477185  0.36530302    -0.70800
O980        O  0.59679345  0.76301123  0.34614846    -0.70300
O981        O  0.74327682  0.78089666  0.39982114    -0.71000
O982        O  0.54867187  0.69030815  0.36493212    -0.70600
O983        O  0.74277267  0.82862529  0.34618870    -0.71200
O984        O  0.64529346  0.94917303  0.36503600    -0.70600
O985        O  0.79455758  0.92489785  0.39949177    -0.71300
O986        O  0.67679631  0.90846339  0.34601324    -0.70700
O987        O  0.72135773  0.95533018  0.39957271    -0.71200
O988        O  0.57722699  0.86044394  0.39951022    -0.71100
O989        O  0.54794471  0.75708087  0.39999701    -0.70900
C990        C  0.69515420  0.72996800  0.40501803     0.80900
C991        C  0.79756427  0.84189251  0.35085285     0.81400
C992        C  0.55341756  0.70853353  0.35059364     0.80400
C993        C  0.65992041  0.94719718  0.35062783     0.80700
C994        C  0.77094293  0.95717599  0.40528211     0.81900
C995        C  0.54567418  0.80463858  0.40555561     0.80900
Zn996      Zn  0.92214410  0.50510191  0.28919421     1.49700
Zn997      Zn  0.58300550  0.58618414  0.28959366     1.49400
Zn998      Zn  0.00111534  0.91918777  0.28805490     1.49100
Zn999      Zn  0.49770039  0.99614165  0.26166223     1.49500
O1000       O  0.49511453  0.99642542  0.28355075    -1.80400
O1001       O  0.44759134  0.57307851  0.30479223    -0.71000
O1002       O  0.61926051  0.05151914  0.30572404    -0.70800
O1003       O  0.93419296  0.87556106  0.30482084    -0.70300
O1004       O  0.55457533  0.63542873  0.30351200    -0.71000
O1005       O  0.87444179  0.92195603  0.30378522    -0.70600
O1006       O  0.57101806  0.94482425  0.30446257    -0.71200
O1007       O  0.96962511  0.91616369  0.25084430    -0.70600
O1008       O  0.63700181  0.63087564  0.26898761    -0.71300
O1009       O  0.98699617  0.85963607  0.26866756    -0.70700
O1010       O  0.58810846  0.54516338  0.25365911    -0.71200
O1011       O  0.96703018  0.55815983  0.25413126    -0.71100
O1012       O  0.87786810  0.51039428  0.26830742    -0.70900
C1013       C  0.50045612  0.61892078  0.30991556     0.80900
C1014       C  0.61058895  0.99825741  0.31085114     0.81400
C1015       C  0.89019075  0.88424483  0.31026867     0.80400
C1016       C  0.97197386  0.86726374  0.25470856     0.80700
C1017       C  0.63215153  0.60214832  0.25590227     0.81900
C1018       C  0.90790028  0.53813915  0.25562309     0.80900
C1019       C  0.67106474  0.83530286  0.83083657     0.49200
H1020       H  0.67089140  0.83610576  0.84388371     0.00200
C1021       C  0.67132236  0.83341969  0.80064553     0.49300
H1022       H  0.67156357  0.83259800  0.78752023     0.00200
C1023       C  0.64348890  0.87781579  0.82314390    -0.13500
C1024       C  0.74228507  0.86305899  0.82361740    -0.13200
C1025       C  0.62781146  0.76375930  0.82373628    -0.13600
C1026       C  0.64829433  0.87702758  0.80697335    -0.13600
C1027       C  0.73773651  0.85712770  0.80749267    -0.13200
C1028       C  0.62773542  0.76730015  0.80753192    -0.13500
C1029       C  0.00505605  0.50351659  0.82999752     0.49200
H1030       H  0.00588051  0.00276106  0.81701765     0.00200
C1031       C  0.00452208  0.50413977  0.86017246     0.49300
H1032       H  0.50499630  0.50047845  0.87369324     0.00200
C1033       C  0.53276632  0.57284977  0.83790567    -0.13500
C1034       C  0.93454660  0.96095329  0.83744218    -0.13200
C1035       C  0.54931865  0.97434569  0.83680500    -0.13600
C1036       C  0.52810485  0.56776054  0.85409597    -0.13600
C1037       C  0.93909852  0.96189742  0.85362261    -0.13200
C1038       C  0.55023340  0.97915430  0.85296185    -0.13500
C1039       C  0.66866061  0.83189115  0.52644556     0.49200
H1040       H  0.66907760  0.83213972  0.53957172     0.00200
C1041       C  0.66757370  0.83115541  0.49623231     0.49300
H1042       H  0.66710629  0.83086369  0.48318260     0.00200
C1043       C  0.69855387  0.89905979  0.51969330    -0.13500
C1044       C  0.70608467  0.80243470  0.51968137    -0.13200
C1045       C  0.60094044  0.79384722  0.51988463    -0.13600
C1046       C  0.70173524  0.90283096  0.50350083    -0.13600
C1047       C  0.70536599  0.79763895  0.50352699    -0.13200
C1048       C  0.59624586  0.79343666  0.50371917    -0.13500
C1049       C  0.82884222  0.65925149  0.46693893     0.49200
H1050       H  0.82853244  0.65870883  0.45382196     0.00200
C1051       C  0.82943823  0.66054272  0.49718971     0.49300
H1052       H  0.82975919  0.66107745  0.51023961     0.00200
C1053       C  0.80093871  0.59229754  0.47384197    -0.13500
C1054       C  0.89641685  0.69896772  0.47357084    -0.13200
C1055       C  0.78993700  0.68748419  0.47364182    -0.13600
C1056       C  0.79677147  0.58893535  0.49002325    -0.13600
C1057       C  0.90067299  0.69929077  0.48975147    -0.13200
C1058       C  0.79076686  0.69275546  0.48979094    -0.13500
Zn1059     Zn  0.82943474  0.67109020  0.59550700     1.49700
Zn1060     Zn  0.75890420  0.58635470  0.62236931     1.49400
Zn1061     Zn  0.91339722  0.68329725  0.62241066     1.49100
Zn1062     Zn  0.81878667  0.74179369  0.62217842     1.49500
O1063       O  0.82983471  0.66999782  0.61723168    -1.80400
O1064       O  0.80312209  0.58840041  0.58612864    -0.71000
O1065       O  0.79262508  0.54821637  0.63839370    -0.70800
O1066       O  0.96514313  0.69387180  0.60159570    -0.70300
O1067       O  0.71966768  0.53060490  0.60169115    -0.71000
O1068       O  0.91406821  0.73017310  0.58708489    -0.70600
O1069       O  0.89928501  0.61149568  0.63722570    -0.71200
O1070       O  0.89058670  0.79925952  0.63711983    -0.70600
O1071       O  0.69943038  0.60153358  0.63631552    -0.71300
O1072       O  0.95539559  0.75840973  0.63749286    -0.70700
O1073       O  0.74302056  0.70816006  0.63689598    -0.71200
O1074       O  0.81112797  0.78520472  0.60142366    -0.71100
O1075       O  0.77060331  0.69644468  0.58734607    -0.70900
C1076       C  0.74900295  0.53931303  0.58850132     0.80900
C1077       C  0.84878409  0.56594786  0.64353657     0.81400
C1078       C  0.95848121  0.71760542  0.58872102     0.80400
C1079       C  0.93767528  0.79613466  0.64291099     0.80700
C1080       C  0.70389445  0.65235644  0.64212863     0.81900
C1081       C  0.78607780  0.75434570  0.58866640     0.80900
Zn1082     Zn  0.91638701  0.93279986  0.70675046     1.49700
Zn1083     Zn  0.50698401  0.57985249  0.70587698     1.49400
Zn1084     Zn  0.50268794  0.50143837  0.73262978     1.49100
Zn1085     Zn  0.57365897  0.99114991  0.70567624     1.49500
O1086       O  0.50035720  0.49877171  0.71088307    -1.80400
O1087       O  0.88049288  0.46769101  0.69072563    -0.71000
O1088       O  0.51493276  0.63253171  0.72642178    -0.70800
O1089       O  0.92064211  0.94584588  0.74471210    -0.70300
O1090       O  0.94226618  0.57415216  0.69172886    -0.71000
O1091       O  0.85769615  0.88163101  0.72584155    -0.70600
O1092       O  0.55688146  0.58722395  0.74097798    -0.71200
O1093       O  0.62241860  0.97821556  0.72478924    -0.70600
O1094       O  0.58000671  0.62398584  0.69038579    -0.71300
O1095       O  0.56061084  0.97979932  0.74379876    -0.70700
O1096       O  0.62758446  0.56501074  0.69061869    -0.71200
O1097       O  0.03899759  0.92253758  0.69079394    -0.71100
O1098       O  0.93263791  0.87894621  0.69135142    -0.70900
C1099       C  0.89650188  0.52331682  0.68564953     0.80900
C1100       C  0.54075730  0.62890563  0.73926616     0.81400
C1101       C  0.86928999  0.89751234  0.74034897     0.80400
C1102       C  0.60699214  0.97403122  0.73936202     0.80700
C1103       C  0.61988477  0.60933359  0.68479929     0.81900
C1104       C  0.98340049  0.88441798  0.68528404     0.80900
C1105       C  0.83124812  0.66555798  0.19440024     0.49200
H1106       H  0.83140710  0.66549939  0.20752648     0.00200
C1107       C  0.83113777  0.66579655  0.16417562     0.49300
H1108       H  0.83099983  0.66578989  0.15112548     0.00200
C1109       C  0.76421317  0.63899439  0.18775553    -0.13500
C1110       C  0.87177071  0.73251934  0.18765152    -0.13200
C1111       C  0.85762596  0.62543221  0.18766614    -0.13600
C1112       C  0.75986637  0.63456152  0.17159919    -0.13600
C1113       C  0.87127196  0.73707871  0.17151851    -0.13200
C1114       C  0.86240399  0.62598265  0.17153333    -0.13500
C1115       C  0.49726485  0.50086459  0.16528836     0.49200
H1116       H  0.99867396  0.50128454  0.17896349     0.00200
C1117       C  0.49722967  0.50198730  0.13507235     0.49300
H1118       H  0.49725509  0.50246160  0.12194492     0.00200
C1119       C  0.95989133  0.92865488  0.15805211    -0.13500
C1120       C  0.96456706  0.53731577  0.15833609    -0.13200
C1121       C  0.56877976  0.53519803  0.15792110    -0.13600
C1122       C  0.95984526  0.93334862  0.14189653    -0.13600
C1123       C  0.96885943  0.53661601  0.14220352    -0.13200
C1124       C  0.56461644  0.53213145  0.14174836    -0.13500
Zn1125     Zn  0.58978560  0.74834684  0.95566308     1.49700
Zn1126     Zn  0.74578189  0.84482579  0.95478621     1.49400
Zn1127     Zn  0.65922660  0.82919660  0.92625683     1.49100
Zn1128     Zn  0.65092234  0.90427681  0.95459969     1.49500
O1129       O  0.66121169  0.83137153  0.94844873    -1.80400
O1130       O  0.62617600  0.71320273  0.97170691    -0.71000
O1131       O  0.80774730  0.86272825  0.93548797    -0.70800
O1132       O  0.60165243  0.74786263  0.91754412    -0.70300
O1133       O  0.73266078  0.77212771  0.96908841    -0.71000
O1134       O  0.54121852  0.68393738  0.93673987    -0.70600
O1135       O  0.73987481  0.85288520  0.91669160    -0.71200
O1136       O  0.64346086  0.95411934  0.93514839    -0.70600
O1137       O  0.78267583  0.91499615  0.97119164    -0.71300
O1138       O  0.63599034  0.88591367  0.91672603    -0.70700
O1139       O  0.72111886  0.95920124  0.97005410    -0.71200
O1140       O  0.57667008  0.87269392  0.96983709    -0.71100
O1141       O  0.53480969  0.76658949  0.97056358    -0.70900
C1142       C  0.68270374  0.72933736  0.97617805     0.80900
C1143       C  0.79440843  0.86419994  0.92095314     0.81400
C1144       C  0.55657945  0.69483187  0.92213481     0.80400
C1145       C  0.63562675  0.93560568  0.92078537     0.80700
C1146       C  0.76513494  0.95286110  0.97654222     0.81900
C1147       C  0.53945830  0.81807195  0.97592470     0.80900
Zn1148     Zn  0.83715014  0.67334717  0.06627222     1.49700
Zn1149     Zn  0.75211212  0.60148402  0.03975639     1.49400
Zn1150     Zn  0.85169388  0.75474033  0.03915462     1.49100
Zn1151     Zn  0.90556470  0.65558884  0.04000324     1.49500
O1152       O  0.83657763  0.67102178  0.04461904    -1.80400
O1153       O  0.75407719  0.65248203  0.07475494    -0.71000
O1154       O  0.71253222  0.63538747  0.02436811    -0.70800
O1155       O  0.86401226  0.80845866  0.05979129    -0.70300
O1156       O  0.69958880  0.56378048  0.06068908    -0.71000
O1157       O  0.90022677  0.75720049  0.07413380    -0.70600
O1158       O  0.77968910  0.74133731  0.02437297    -0.71200
O1159       O  0.96733881  0.72735648  0.02578561    -0.70600
O1160       O  0.76390203  0.54131131  0.02529921    -0.71300
O1161       O  0.92649787  0.79208599  0.02399261    -0.70700
O1162       O  0.87022347  0.58237440  0.02449431    -0.71200
O1163       O  0.94383262  0.64099058  0.06079245    -0.71100
O1164       O  0.85818739  0.61318022  0.07558932    -0.70900
C1165       C  0.70751704  0.59601007  0.07332224     0.80900
C1166       C  0.73168232  0.69095974  0.01872765     0.81400
C1167       C  0.88813189  0.80181713  0.07260484     0.80400
C1168       C  0.96424230  0.77318456  0.01924118     0.80700
C1169       C  0.81400649  0.54503233  0.01918599     0.81900
C1170       C  0.91305227  0.61987768  0.07375966     0.80900
C1171       C  0.70381241  0.69621736  0.00418314    -0.09500
C1172       C  0.69089353  0.70520073  0.99100093    -0.11100
C1173       C  0.78950463  0.98318299  0.99157730    -0.09500
C1174       C  0.80756076  0.51292375  0.00441761    -0.11100
C1175       C  0.99726643  0.79739725  0.00451953    -0.09500
C1176       C  0.50883270  0.81525908  0.99075319    -0.11100
C1177       C  0.92723455  0.88396122  0.13016264    -0.14700
C1178       C  0.91105683  0.86377460  0.11691789     0.09300
C1179       C  0.90149563  0.85242165  0.10045665     0.11200
C1180       C  0.89601111  0.83839282  0.08663545    -0.15600
C1181       C  0.94004087  0.60815222  0.08754916    -0.14700
C1182       C  0.94820601  0.60007437  0.10120749     0.09300
C1183       C  0.94974286  0.58789792  0.11749141     0.11200
C1184       C  0.95320302  0.56997823  0.13054052    -0.15600
C1185       C  0.61452751  0.54995559  0.13012489    -0.14700
C1186       C  0.63701056  0.55585020  0.11709555     0.09300
C1187       C  0.65214848  0.55974801  0.10083749     0.11200
C1188       C  0.66910535  0.56894096  0.08721782    -0.15600
C1189       C  0.93291919  0.57011965  0.16768550    -0.12700
C1190       C  0.89311120  0.59254111  0.16208423    -0.27800
H1191       H  0.94421356  0.57562659  0.18008857     0.16400
H1192       H  0.88196026  0.58747155  0.14967916     0.16900
C1193       C  0.92781237  0.86410232  0.16754670    -0.12700
C1194       C  0.90448458  0.80148082  0.16200474    -0.27800
H1195       H  0.92376075  0.87005768  0.18001869     0.16400
H1196       H  0.90818279  0.79516653  0.14954904     0.16900
C1197       C  0.69581117  0.60510239  0.16206268    -0.12700
C1198       C  0.63292393  0.56589569  0.16750731    -0.27800
H1199       H  0.70268458  0.61661532  0.14968785     0.16400
H1200       H  0.62648402  0.55451512  0.17991284     0.16900
C1201       C  0.86799843  0.52893172  0.67124573    -0.09500
C1202       C  0.85553554  0.53963999  0.65818351    -0.11100
C1203       C  0.96580877  0.82999888  0.65738198    -0.09500
C1204       C  0.97771161  0.85247665  0.67052220    -0.11100
C1205       C  0.67091877  0.64704793  0.65666726    -0.09500
C1206       C  0.65039427  0.63678198  0.66998523    -0.11100
C1207       C  0.71602520  0.94911746  0.53128594    -0.14700
C1208       C  0.72146432  0.97189032  0.54428583     0.09300
C1209       C  0.72467633  0.98754873  0.56053555     0.11200
C1210       C  0.72147489  0.49794155  0.57500800    -0.15600
C1211       C  0.55174601  0.75856928  0.53154621    -0.14700
C1212       C  0.53109152  0.73949026  0.54464481     0.09300
C1213       C  0.51836906  0.72641028  0.56099458     0.11200
C1214       C  0.99551529  0.72517035  0.57478045    -0.15600
C1215       C  0.74243448  0.78970395  0.53115815    -0.14700
C1216       C  0.76190447  0.78938120  0.54426009     0.09300
C1217       C  0.77412752  0.79088204  0.56066068     0.11200
C1218       C  0.78019766  0.78365279  0.57452404    -0.15600
C1219       C  0.76650010  0.52532505  0.49980393    -0.12700
C1220       C  0.73227588  0.96664839  0.49377614    -0.27800
H1221       H  0.77791018  0.53225811  0.51220129     0.16400
H1222       H  0.72083080  0.95959358  0.48138250     0.16900
C1223       C  0.53185354  0.76050972  0.49416593    -0.12700
C1224       C  0.96467627  0.73296562  0.49937764    -0.27800
H1225       H  0.53834510  0.75569575  0.48177138     0.16400
H1226       H  0.95783834  0.73748040  0.51176488     0.16900
C1227       C  0.73704650  0.76537763  0.49392271    -0.12700
C1228       C  0.75889394  0.72492364  0.49935711    -0.27800
H1229       H  0.74155320  0.77613164  0.48149055     0.16400
H1230       H  0.75447595  0.71429624  0.51179614     0.16900
C1231       C  0.83887916  0.87893937  0.90818545    -0.14700
C1232       C  0.85720625  0.88965630  0.89465426     0.09300
C1233       C  0.87076896  0.90425321  0.87838376     0.11200
C1234       C  0.89093417  0.92434701  0.86531066    -0.15600
C1235       C  0.59030669  0.97183344  0.86441573    -0.14700
C1236       C  0.61061217  0.97469148  0.87759276     0.09300
C1237       C  0.62239084  0.97787349  0.89405112     0.11200
C1238       C  0.62843396  0.96962999  0.90785107    -0.15600
C1239       C  0.52557443  0.64997946  0.90947656    -0.14700
C1240       C  0.52095959  0.63527679  0.89567057     0.09300
C1241       C  0.52809308  0.62844889  0.87921789     0.11200
C1242       C  0.53376368  0.61357117  0.86591875    -0.15600
C1243       C  0.78501624  0.86346883  0.79614352    -0.14700
C1244       C  0.80249302  0.85925593  0.78310070     0.09300
C1245       C  0.81148780  0.85471946  0.76675737     0.11200
C1246       C  0.82677225  0.86269958  0.75303711    -0.15600
C1247       C  0.63929246  0.96219221  0.75203042    -0.14700
C1248       C  0.64652269  0.95181603  0.76562936     0.09300
C1249       C  0.64322026  0.93654506  0.78194753     0.11200
C1250       C  0.64062209  0.91570150  0.79509008    -0.15600
C1251       C  0.54764685  0.66648371  0.75307799    -0.14700
C1252       C  0.55509888  0.68288385  0.76676489     0.09300
C1253       C  0.56887349  0.69719305  0.78304778     0.11200
C1254       C  0.58937966  0.71854315  0.79602513    -0.15600
C1255       C  0.58319710  0.94460594  0.82707085    -0.12700
C1256       C  0.61403731  0.91244483  0.83262329    -0.27800
H1257       H  0.57907559  0.94753346  0.81448233     0.16400
H1258       H  0.61600313  0.90745838  0.84519591     0.16900
C1259       C  0.87020444  0.92593506  0.82779923    -0.12700
C1260       C  0.80656004  0.89378291  0.83328488    -0.27800
H1261       H  0.87742380  0.93020912  0.81521912     0.16400
H1262       H  0.79920735  0.89150156  0.84584784     0.16900
C1263       C  0.59373008  0.70017810  0.83361672    -0.12700
C1264       C  0.56199842  0.63669036  0.82823857    -0.27800
H1265       H  0.59842238  0.70759821  0.84619929     0.16400
H1266       H  0.55910926  0.62904862  0.81568942     0.16900
C1267       C  0.91141961  0.78051079  0.19904365    -0.14700
C1268       C  0.93342680  0.79844901  0.21205311     0.09300
C1269       C  0.94911779  0.80799147  0.22828922     0.11200
C1270       C  0.95969239  0.82388085  0.24194688    -0.15600
C1271       C  0.87666568  0.54321414  0.24174127    -0.14700
C1272       C  0.86811204  0.55077058  0.22806333     0.09300
C1273       C  0.86850667  0.56575059  0.21188409     0.11200
C1274       C  0.86821574  0.58730679  0.19905786    -0.15600
C1275       C  0.67145406  0.63253185  0.24229986    -0.14700
C1276       C  0.68645152  0.63818116  0.22852898     0.09300
C1277       C  0.69731422  0.63342450  0.21224816     0.11200
C1278       C  0.71622342  0.63039298  0.19924913    -0.15600
C1279       C  0.65258856  0.98384904  0.33830358    -0.09500
C1280       C  0.63996765  0.99698879  0.32554445    -0.11100
C1281       C  0.51388346  0.66786360  0.33811576    -0.09500
C1282       C  0.50060991  0.64630349  0.32494048    -0.11100
C1283       C  0.84031598  0.84682043  0.33849159    -0.09500
C1284       C  0.86309028  0.85737539  0.32540565    -0.11100
C1285       C  0.79389557  0.98887069  0.42023462    -0.14700
C1286       C  0.79230563  0.50074685  0.43429608     0.09300
C1287       C  0.79026927  0.51812294  0.45020832     0.11200
C1288       C  0.79024245  0.54247821  0.46267199    -0.15600
C1289       C  0.94606522  0.73648062  0.46213766    -0.14700
C1290       C  0.97034581  0.75979250  0.44956060     0.09300
C1291       C  0.98835423  0.77932668  0.43366593     0.11200
C1292       C  0.51387071  0.79600245  0.42049823    -0.15600
C1293       C  0.75278689  0.69981434  0.46228204    -0.14700
C1294       C  0.73026594  0.70114839  0.44965707     0.09300
C1295       C  0.71259101  0.70044729  0.43366624     0.11200
C1296       C  0.70244977  0.70612785  0.41996893    -0.15600
loop_ 
_geom_bond_atom_site_label_1 
_geom_bond_atom_site_label_2 
_geom_bond_distance 
_geom_bond_site_symmetry_2 
_ccdc_geom_bond_type 
Zn1           O5   1.972       .  S
Zn1           O6   2.051       .  S
Zn1          O10   2.098       .  S
Zn1          O17   2.012       .  S
Zn2           O5   1.970       .  S
Zn2           O7   2.104       .  S
Zn2           O9   2.009       .  S
Zn2          O13   2.041       .  S
Zn3           O5   1.905       .  S
Zn3           O8   1.933       .  S
Zn3          O11   1.931       .  S
Zn3          O14   1.937       .  S
Zn4           O5   1.969       .  S
Zn4          O12   2.104       .  S
Zn4          O15   2.008       .  S
Zn4          O16   2.046       .  S
O6           C18   1.277       .  A
O7           C19   1.283       .  A
O8           C20   1.260       .  A
O9           C18   1.271       .  A
O10          C20   1.283       .  A
O11          C19   1.259       .  A
O12          C21   1.283       .  A
O13          C22   1.277       .  A
O14          C21   1.260       .  A
O15          C22   1.272       .  A
O16          C23   1.277       .  A
O17          C23   1.272       .  A
C18         C324   1.447       .  S
C19         C311   1.439       .  S
C20         C309   1.437       .  S
C21         C307   1.440       .  S
C22         C313   1.443       .  S
C23         C320   1.447       .  S
Zn24       O1000   1.953       .  S
Zn24         O40   2.118   1_565  S
Zn24        O677   2.025   1_565  S
Zn24        O357   2.034       .  S
Zn25        O352   1.954   1_545  S
Zn25         O32   2.024       .  S
Zn25         O36   2.107       .  S
Zn25        O354   2.021       .  S
Zn26        O676   1.920       .  S
Zn26         O31   2.021       .  S
Zn26         O37   2.123       .  S
Zn26        O682   2.045       .  S
Zn27         O28   1.839       .  S
Zn27        O683   1.937   1_455  S
Zn27        O362   1.933       .  S
Zn27       O1011   1.939   1_455  S
O28        Zn996   1.926   1_455  S
O28        Zn349   1.927       .  S
O28        Zn674   1.926       .  S
O29        Zn672   2.014   1_545  S
O29          C41   1.272   1_655  A
O30        Zn349   2.026       .  S
O30          C42   1.275       .  A
O31          C43   1.273       .  A
O32          C41   1.277       .  A
O33        Zn348   2.028       .  S
O33          C43   1.278       .  A
O34        Zn674   2.028       .  S
O34          C42   1.278       .  A
O35        Zn675   1.938       .  S
O35          C44   1.263       .  A
O36          C45   1.282       .  A
O37          C44   1.287       .  A
O38        Zn351   1.905   1_445  S
O38          C45   1.257       .  A
O39        Zn999   1.924   1_545  S
O39          C46   1.259       .  A
O40          C46   1.285       .  A
C41         C310   1.440       .  S
C42         C308   1.444       .  S
C43         C312   1.444       .  S
C44         C298   1.444       .  S
C45         C303   1.434       .  S
C46         C299   1.441       .  S
C47          H48   1.110       .  S
C47          C53   1.620       .  S
C47          C52   1.617       .  S
C47          C51   1.621       .  S
C49          H50   1.116       .  S
C49          C55   1.518       .  S
C49          C54   1.520       .  S
C49          C56   1.520       .  S
C51          C54   1.380       .  D
C51         C284   1.573       .  S
C52          C55   1.377       .  D
C52         C288   1.568       .  S
C53          C56   1.380       .  D
C53         C291   1.569       .  S
C54         C278   1.449       .  S
C55         C271   1.445       .  S
C56         C282   1.449       .  S
C57         H382   1.110       .  S
C57        C1035   1.621   1_545  S
C57         C386   1.620   1_545  S
C57         C709   1.621       .  S
H58         C381   1.110       .  S
C59         H708   1.117       .  S
C59         C389   1.518   1_545  S
C59         C712   1.518       .  S
C59        C1038   1.517   1_545  S
H60         C707   1.117       .  S
C61         C705   1.622       .  S
C61          C64   1.379       .  D
C61         C292   1.576       .  S
C62         C381   1.618       .  S
C62          C65   1.378       .  D
C62         C287   1.566       .  S
C63        C1029   1.623       .  S
C63          C66   1.382       .  D
C63         C283   1.572       .  S
C64         C707   1.520       .  S
C64         C270   1.446       .  S
C65         C383   1.517       .  S
C65         C262   1.446       .  S
C66        C1031   1.518       .  S
C66         C263   1.452       .  S
C67          H68   1.116       .  S
C67          C73   1.520       .  S
C67          C72   1.519       .  S
C67          C71   1.520       .  S
C69          H70   1.110       .  S
C69          C75   1.619       .  S
C69          C74   1.620       .  S
C69          C76   1.618       .  S
C71          C74   1.378       .  D
C71         C235   1.446       .  S
C72          C75   1.378       .  D
C72         C243   1.446       .  S
C73          C76   1.382       .  D
C73         C239   1.455       .  S
C74         C248   1.571       .  S
C75         C255   1.569       .  S
C76         C251   1.566       .  S
C77          H78   1.116       .  S
C77          C83   1.523       .  S
C77          C82   1.525       .  S
C77          C81   1.524       .  S
C79          H80   1.110       .  S
C79          C85   1.618       .  S
C79          C84   1.617       .  S
C79          C86   1.620       .  S
C81          C84   1.379       .  D
C81         C316   1.447       .  S
C82          C85   1.380       .  D
C82         C317   1.451       .  S
C83          C86   1.379       .  D
C83         C321   1.454       .  S
C84         C247   1.571       .  S
C85         C252   1.571       .  S
C86         C256   1.568       .  S
Zn87         O91   1.857       .  S
Zn87         O92   1.935       .  S
Zn87         O96   1.931       .  S
Zn87        O103   1.942       .  S
Zn88         O91   1.940       .  S
Zn88         O93   2.039       .  S
Zn88         O95   2.122       .  S
Zn88         O99   2.029       .  S
Zn89         O91   1.936       .  S
Zn89         O94   2.108       .  S
Zn89         O97   2.033       .  S
Zn89        O100   2.030       .  S
Zn90         O91   1.941       .  S
Zn90         O98   2.036       .  S
Zn90        O101   2.023       .  S
Zn90        O102   2.108       .  S
O92         C104   1.260       .  A
O93         C105   1.277       .  A
O94         C106   1.284       .  A
O95         C104   1.284       .  A
O96         C106   1.261       .  A
O97         C105   1.278       .  A
O98         C107   1.277       .  A
O99         C108   1.277       .  A
O100        C107   1.275       .  A
O101        C108   1.275       .  A
O102        C109   1.283       .  A
O103        C109   1.261       .  A
C104        C238   1.442   1_545  S
C105        C230   1.448       .  S
C106        C242   1.438       .  S
C107        C231   1.447       .  S
C108        C233   1.442       .  S
C109        C246   1.439       .  S
Zn110      O1086   1.932       .  S
Zn110       O119   2.101       .  S
Zn110       O126   2.029       .  S
Zn110       O439   2.027       .  S
Zn111       O114   1.974   1_455  S
Zn111       O116   2.117       .  S
Zn111       O122   2.020       .  S
Zn111       O766   2.031   1_455  S
Zn112       O114   1.891   1_455  S
Zn112       O120   1.904       .  S
Zn112      O1089   1.906   1_445  S
Zn112       O447   1.915   1_545  S
Zn113       O438   1.979       .  S
Zn113       O121   2.114       .  S
Zn113       O448   2.025       .  S
Zn113       O773   2.033       .  S
O114      Zn1082   1.975   1_545  S
O114       Zn437   1.977   1_645  S
O115       Zn434   2.034       .  S
O115        C127   1.274   1_565  A
O116        C128   1.283       .  A
O117      Zn1084   1.939       .  S
O117        C129   1.262       .  A
O118       Zn759   2.042       .  S
O118        C127   1.278       .  A
O119        C129   1.283       .  A
O120        C128   1.255       .  A
O121        C130   1.282       .  A
O122        C131   1.273       .  A
O123       Zn436   1.913       .  S
O123        C130   1.256       .  A
O124       Zn437   2.028   1_545  S
O124        C131   1.276       .  A
O125       Zn761   2.037       .  S
O125        C132   1.276       .  A
O126        C132   1.276       .  A
C127        C229   1.449       .  S
C128        C279   1.439       .  S
C129        C274   1.437       .  S
C130        C275   1.440       .  S
C131        C234   1.442       .  S
C132        C232   1.447       .  S
C133        H134   1.116       .  S
C133        C139   1.520       .  S
C133        C138   1.520       .  S
C133        C137   1.520       .  S
C135        H136   1.110       .  S
C135        C141   1.619       .  S
C135        C140   1.618       .  S
C135        C142   1.620       .  S
C137        C140   1.377       .  D
C137        C306   1.444       .  S
C138        C141   1.380       .  D
C138        C295   1.451       .  S
C139        C142   1.378       .  D
C139        C302   1.450       .  S
C140        C225   1.569       .  S
C141        C222   1.568       .  S
C142        C218   1.570       .  S
C143        H792   1.110   1_545  S
C143        C149   1.622   1_655  S
C143        C796   1.622       .  S
C143       C1119   1.621   1_545  S
H144        C791   1.110       .  S
C145        H146   1.117       .  S
C145        C152   1.518   1_655  S
C145        C799   1.519       .  S
C145       C1122   1.519   1_545  S
C147       C1115   1.617       .  S
C147        C150   1.379       .  D
C147        C221   1.568       .  S
C148        C791   1.622       .  S
C148        C151   1.379       .  D
C148        C217   1.570       .  S
C149        C152   1.380       .  D
C149        C226   1.571       .  S
C150       C1117   1.520       .  S
C150        C205   1.448       .  S
C151        C793   1.518       .  S
C151        C212   1.449       .  S
C152        C213   1.449       .  S
Zn153       O157   1.944       .  S
Zn153       O158   2.036       .  S
Zn153       O162   2.100       .  S
Zn153       O169   2.026       .  S
Zn154       O157   1.947       .  S
Zn154       O159   2.103       .  S
Zn154       O161   2.021       .  S
Zn154       O165   2.020       .  S
Zn155       O157   1.866       .  S
Zn155       O160   1.942       .  S
Zn155       O163   1.938       .  S
Zn155       O166   1.917       .  S
Zn156       O157   1.947       .  S
Zn156       O164   2.130       .  S
Zn156       O167   2.033       .  S
Zn156       O168   2.031       .  S
O158        C170   1.275       .  A
O159        C171   1.281       .  A
O160        C172   1.263       .  A
O161        C170   1.274       .  A
O162        C172   1.284       .  A
O163        C171   1.259       .  A
O164        C173   1.286       .  A
O165        C174   1.275       .  A
O166        C173   1.258       .  A
O167        C174   1.278       .  A
O168        C175   1.275       .  A
O169        C175   1.276       .  A
C170        C200   1.445       .  S
C171        C259   1.438       .  S
C172        C267   1.438       .  S
C173        C266   1.443       .  S
C174        C201   1.442       .  S
C175        C204   1.445       .  S
Zn176       O180   1.849       .  S
Zn176       O181   1.938       .  S
Zn176       O185   1.947       .  S
Zn176       O192   1.937       .  S
Zn177       O180   1.929       .  S
Zn177       O182   2.034       .  S
Zn177       O184   2.117       .  S
Zn177       O188   2.042       .  S
Zn178       O180   1.933       .  S
Zn178       O183   2.108       .  S
Zn178       O186   2.031       .  S
Zn178       O189   2.018       .  S
Zn179       O180   1.932       .  S
Zn179       O187   2.030       .  S
Zn179       O190   2.028       .  S
Zn179       O191   2.119       .  S
O181        C193   1.262       .  A
O182        C194   1.275       .  A
O183        C195   1.283       .  A
O184        C193   1.286       .  A
O185        C195   1.261       .  A
O186        C194   1.277       .  A
O187        C196   1.278       .  A
O188        C197   1.279       .  A
O189        C196   1.274       .  A
O190        C197   1.276       .  A
O191        C198   1.284       .  A
O192        C198   1.260       .  A
C193        C216   1.442       .  S
C194        C199   1.446       .  S
C195        C208   1.441       .  S
C196        C203   1.441       .  S
C197        C202   1.447       .  S
C198        C209   1.442       .  S
C199        C200   1.213   1_554  T
C201        C526   1.211   1_556  T
C202        C525   1.214   1_544  T
C203        C852   1.211   1_554  T
C204        C851   1.213   1_456  T
C205        C206   1.212       .  T
C206        C207   1.423       .  S
C207        C208   1.212       .  T
C209        C210   1.213       .  T
C210        C211   1.425       .  S
C211        C212   1.213       .  T
C213        C214   1.213       .  T
C214        C215   1.425       .  S
C215        C216   1.213       .  T
C217        C218   1.405       .  D
C217        H219   1.082       .  S
C218        H220   1.081       .  S
C221        C222   1.403       .  D
C221        H223   1.081       .  S
C222        H224   1.081       .  S
C225        C226   1.405       .  D
C225        H227   1.080       .  S
C226        H228   1.082       .  S
C229        C230   1.215       .  T
C231        C232   1.214       .  T
C233        C234   1.211       .  T
C235        C236   1.210       .  T
C236        C237   1.421       .  S
C237        C562   1.211       .  T
C238        C561   1.214       .  T
C239        C240   1.216       .  T
C240        C241   1.431       .  S
C241        C890   1.217       .  T
C242        C889   1.211       .  T
C243        C244   1.210       .  T
C244        C245   1.422       .  S
C245        C246   1.211       .  T
C247        C572   1.404   1_545  D
C247        H249   1.082       .  S
C248        C571   1.405       .  D
C248        H250   1.081       .  S
C251        C900   1.400   1_455  D
C251        H253   1.081       .  S
C252        C899   1.404       .  D
C252        H254   1.081       .  S
C255        C256   1.404       .  D
C255        H257   1.081       .  S
C256        H258   1.081       .  S
C259        C260   1.211       .  T
C260        C261   1.422       .  S
C261        C262   1.211       .  T
C263        C264   1.215       .  T
C264        C265   1.429       .  S
C265        C266   1.215       .  T
C267        C268   1.211       .  T
C268        C269   1.420       .  S
C269        C270   1.210       .  T
C271        C272   1.209       .  T
C272        C273   1.419       .  S
C273        C274   1.210       .  T
C275        C276   1.213       .  T
C276        C277   1.425       .  S
C277        C278   1.213       .  T
C279        C280   1.213       .  T
C280        C281   1.426       .  S
C281        C282   1.213       .  T
C283        C284   1.405       .  D
C283        H285   1.080       .  S
C284        H286   1.081       .  S
C287        C288   1.404       .  D
C287        H289   1.079       .  S
C288        H290   1.080       .  S
C291        C292   1.406       .  D
C291        H293   1.078       .  S
C292        H294   1.082       .  S
C295        C296   1.213       .  T
C296        C297   1.426       .  S
C297        C298   1.214       .  T
C299        C300   1.213       .  T
C300        C301   1.425       .  S
C301        C302   1.213       .  T
C303        C304   1.210       .  T
C304        C305   1.421       .  S
C305        C306   1.210       .  T
C307        C308   1.212       .  T
C309        C310   1.209       .  T
C311        C312   1.212       .  T
C313        C638   1.212       .  T
C314        C637   1.211   1_545  T
C314        C315   1.422       .  S
C315        C316   1.211       .  T
C317        C318   1.213       .  T
C318        C319   1.425       .  S
C319        C968   1.214       .  T
C320        C967   1.215   1_455  T
C321        C322   1.214       .  T
C322        C323   1.427       .  S
C323        C324   1.215       .  T
Zn325       O329   1.933       .  S
Zn325       O330   2.053       .  S
Zn325       O334   2.105       .  S
Zn325       O341   2.007       .  S
Zn326       O329   1.932       .  S
Zn326       O331   2.095       .  S
Zn326       O333   2.010       .  S
Zn326       O337   2.033       .  S
Zn327       O329   1.867       .  S
Zn327       O332   1.953       .  S
Zn327       O335   1.949       .  S
Zn327       O338   1.956       .  S
Zn328       O329   1.933       .  S
Zn328       O336   2.109       .  S
Zn328       O339   2.012       .  S
Zn328       O340   2.052       .  S
O330        C342   1.279       .  A
O331        C343   1.283       .  A
O332        C344   1.263       .  A
O333        C342   1.273       .  A
O334        C344   1.285       .  A
O335        C343   1.262       .  A
O336        C345   1.285       .  A
O337        C346   1.276       .  A
O338        C345   1.263       .  A
O339        C346   1.274       .  A
O340        C347   1.279       .  A
O341        C347   1.272       .  A
C342        C648   1.447       .  S
C343        C635   1.437       .  S
C344        C633   1.441       .  S
C345        C631   1.442       .  S
C346        C637   1.441       .  S
C347        C644   1.446       .  S
Zn348       O676   1.925       .  S
Zn348      O1001   2.006       .  S
Zn348       O364   2.116       .  S
Zn349       O356   2.027       .  S
Zn349       O360   2.118       .  S
Zn350      O1000   1.950       .  S
Zn350       O355   2.009       .  S
Zn350      O1006   2.030       .  S
Zn350       O361   2.111       .  S
Zn351       O352   1.870   1_655  S
Zn351      O1007   1.908       .  S
Zn351       O687   1.912   1_565  S
O352       Zn672   1.959   1_455  S
O352       Zn998   1.962       .  S
O353       Zn996   2.029       .  S
O353        C365   1.275       .  A
O354        C366   1.272   1_545  A
O355        C367   1.271       .  A
O356        C365   1.278   1_455  A
O357        C367   1.278       .  A
O358       Zn998   2.031       .  S
O358        C366   1.277       .  A
O359       Zn999   1.911       .  S
O359        C368   1.257       .  A
O360        C369   1.284       .  A
O361        C368   1.283       .  A
O362        C369   1.260       .  A
O363       Zn675   1.943       .  S
O363        C370   1.261       .  A
O364        C370   1.284       .  A
C365        C634   1.443       .  S
C366        C632   1.445       .  S
C367        C636   1.440       .  S
C368        C622   1.437       .  S
C369        C627   1.441       .  S
C370        C623   1.443       .  S
C371        H372   1.110       .  S
C371        C377   1.620       .  S
C371        C376   1.621       .  S
C371        C375   1.622       .  S
C373        H374   1.117       .  S
C373        C379   1.519       .  S
C373        C378   1.519       .  S
C373        C380   1.520       .  S
C375        C378   1.380       .  D
C375        C608   1.574       .  S
C376        C379   1.381       .  D
C376        C612   1.571       .  S
C377        C380   1.381       .  D
C377        C615   1.572       .  S
C378        C602   1.449       .  S
C379        C595   1.451       .  S
C380        C606   1.448       .  S
C381        C711   1.620       .  S
C381       C1033   1.619       .  S
C383       H1032   1.117       .  S
C383       C1036   1.519       .  S
C383        C714   1.519       .  S
H384       C1031   1.117       .  S
C385       C1029   1.621       .  S
C385        C388   1.379       .  D
C385        C616   1.574       .  S
C386        C389   1.382       .  D
C386        C611   1.571       .  S
C387        C705   1.624   1_565  S
C387        C390   1.382       .  D
C387        C607   1.574       .  S
C388       C1031   1.519       .  S
C388        C594   1.447       .  S
C389        C586   1.451       .  S
C390        C707   1.520   1_565  S
C390        C587   1.451       .  S
C391        H392   1.116       .  S
C391        C397   1.518       .  S
C391        C396   1.521       .  S
C391        C395   1.520       .  S
C393        H394   1.110       .  S
C393        C399   1.619       .  S
C393        C398   1.619       .  S
C393        C400   1.619       .  S
C395        C398   1.380       .  D
C395        C559   1.450       .  S
C396        C399   1.379       .  D
C396        C567   1.448       .  S
C397        C400   1.379       .  D
C397        C563   1.448       .  S
C398        C572   1.569       .  S
C399        C579   1.572       .  S
C400        C575   1.567       .  S
C401        H402   1.116       .  S
C401        C407   1.524       .  S
C401        C406   1.524       .  S
C401        C405   1.525       .  S
C403        H404   1.110       .  S
C403        C409   1.619       .  S
C403        C408   1.617       .  S
C403        C410   1.620       .  S
C405        C408   1.378       .  D
C405        C640   1.449       .  S
C406        C409   1.379       .  D
C406        C641   1.451       .  S
C407        C410   1.380       .  D
C407        C645   1.453       .  S
C408        C571   1.571       .  S
C409        C576   1.571       .  S
C410        C580   1.572       .  S
Zn411       O415   1.841       .  S
Zn411       O416   1.942       .  S
Zn411       O420   1.938       .  S
Zn411       O427   1.940       .  S
Zn412       O415   1.927       .  S
Zn412       O417   2.019       .  S
Zn412       O419   2.106       .  S
Zn412       O423   2.034       .  S
Zn413       O415   1.927       .  S
Zn413       O418   2.121       .  S
Zn413       O421   2.040       .  S
Zn413       O424   2.029       .  S
Zn414       O415   1.924       .  S
Zn414       O422   2.034       .  S
Zn414       O425   2.016       .  S
Zn414       O426   2.111       .  S
O416        C428   1.262       .  A
O417        C429   1.274       .  A
O418        C430   1.285       .  A
O419        C428   1.283       .  A
O420        C430   1.261       .  A
O421        C429   1.279       .  A
O422        C431   1.279       .  A
O423        C432   1.278       .  A
O424        C431   1.276       .  A
O425        C432   1.274       .  A
O426        C433   1.284       .  A
O427        C433   1.262       .  A
C428        C562   1.439       .  S
C429        C554   1.443       .  S
C430        C566   1.442       .  S
C431        C555   1.445       .  S
C432        C557   1.441       .  S
C433        C570   1.441       .  S
Zn434       O762   1.981       .  S
Zn434       O443   2.126       .  S
Zn434       O450   2.035       .  S
Zn435       O438   1.979       .  S
Zn435       O440   2.117       .  S
Zn435      O1090   2.031   1_455  S
Zn435       O446   2.022       .  S
Zn436       O438   1.894       .  S
Zn436       O765   1.904   1_455  S
Zn436       O444   1.905       .  S
Zn437       O445   2.115       .  S
Zn437      O1097   2.030       .  S
O438       Zn758   1.976   1_455  S
O439        C451   1.275       .  A
O440        C452   1.282       .  A
O441       Zn760   1.903       .  S
O441        C453   1.255       .  A
O442      Zn1083   2.020       .  S
O442        C451   1.276       .  A
O443        C453   1.284       .  A
O444        C452   1.255       .  A
O445        C454   1.283       .  A
O446        C455   1.273       .  A
O447        C454   1.256       .  A
O448        C455   1.276       .  A
O449      Zn1085   2.025       .  S
O449        C456   1.273       .  A
O450        C456   1.277       .  A
C451        C553   1.442       .  S
C452        C603   1.438       .  S
C453        C598   1.441       .  S
C454        C599   1.440       .  S
C455        C558   1.441       .  S
C456        C556   1.445       .  S
C457        H458   1.116       .  S
C457        C463   1.521       .  S
C457        C462   1.522       .  S
C457        C461   1.520       .  S
C459        H460   1.110       .  S
C459        C465   1.616       .  S
C459        C464   1.615       .  S
C459        C466   1.617       .  S
C461        C464   1.378       .  D
C461        C630   1.450       .  S
C462        C465   1.380       .  D
C462        C619   1.447       .  S
C463        C466   1.379       .  D
C463        C626   1.450       .  S
C464        C549   1.563       .  S
C465        C546   1.568       .  S
C466        C542   1.568       .  S
C467       H1116   1.110       .  S
C467        C473   1.619   1_655  S
C467       C1120   1.619       .  S
C467        C795   1.619       .  S
H468       C1115   1.110       .  S
C469        H470   1.116   1_655  S
C469       C1123   1.519       .  S
C469        C798   1.519       .  S
C469        C476   1.518   1_655  S
C471        C791   1.620   1_565  S
C471        C474   1.380       .  D
C471        C545   1.572       .  S
C472       C1115   1.619       .  S
C472        C475   1.379       .  D
C472        C541   1.568       .  S
C473        C476   1.380       .  D
C473        C550   1.566       .  S
C474        C793   1.520   1_565  S
C474        C529   1.449       .  S
C475       C1117   1.519       .  S
C475        C536   1.449       .  S
C476        C537   1.450       .  S
Zn477       O481   1.977       .  S
Zn477       O482   2.030       .  S
Zn477       O486   2.118       .  S
Zn477       O493   2.031       .  S
Zn478       O481   1.976       .  S
Zn478       O483   2.129       .  S
Zn478       O485   2.039       .  S
Zn478       O489   2.033       .  S
Zn479       O481   1.892       .  S
Zn479       O484   1.902       .  S
Zn479       O487   1.904       .  S
Zn479       O490   1.913       .  S
Zn480       O481   1.978       .  S
Zn480       O488   2.117       .  S
Zn480       O491   2.031       .  S
Zn480       O492   2.013       .  S
O482        C494   1.274       .  A
O483        C495   1.285       .  A
O484        C496   1.255       .  A
O485        C494   1.277       .  A
O486        C496   1.283       .  A
O487        C495   1.255       .  A
O488        C497   1.283       .  A
O489        C498   1.274       .  A
O490        C497   1.256       .  A
O491        C498   1.276       .  A
O492        C499   1.272       .  A
O493        C499   1.276       .  A
C494        C524   1.448       .  S
C495        C583   1.442       .  S
C496        C591   1.438       .  S
C497        C590   1.442       .  S
C498        C525   1.447       .  S
C499        C528   1.442       .  S
Zn500       O504   1.839       .  S
Zn500       O505   1.936       .  S
Zn500       O509   1.942       .  S
Zn500       O516   1.936       .  S
Zn501       O504   1.924       .  S
Zn501       O506   2.028       .  S
Zn501       O508   2.125       .  S
Zn501       O512   2.034       .  S
Zn502       O504   1.923       .  S
Zn502       O507   2.121       .  S
Zn502       O510   2.042       .  S
Zn502       O513   2.030       .  S
Zn503       O504   1.927       .  S
Zn503       O511   2.028       .  S
Zn503       O514   2.015       .  S
Zn503       O515   2.118       .  S
O505        C517   1.261       .  A
O506        C518   1.275       .  A
O507        C519   1.286       .  A
O508        C517   1.286       .  A
O509        C519   1.262       .  A
O510        C518   1.279       .  A
O511        C520   1.277       .  A
O512        C521   1.279       .  A
O513        C520   1.276       .  A
O514        C521   1.274       .  A
O515        C522   1.284       .  A
O516        C522   1.260       .  A
C517        C540   1.443       .  S
C518        C523   1.448       .  S
C519        C532   1.443       .  S
C520        C527   1.445       .  S
C521        C526   1.442       .  S
C522        C533   1.441       .  S
C523        C524   1.215   1_554  T
C527       C1176   1.213   1_554  T
C528       C1175   1.211   1_456  T
C529        C530   1.213       .  T
C530        C531   1.425       .  S
C531        C532   1.213       .  T
C533        C534   1.213       .  T
C534        C535   1.425       .  S
C535        C536   1.213       .  T
C537        C538   1.213       .  T
C538        C539   1.426       .  S
C539        C540   1.214       .  T
C541        C542   1.402       .  D
C541        H543   1.081       .  S
C542        H544   1.081       .  S
C545        C546   1.403       .  D
C545        H547   1.082       .  S
C546        H548   1.080       .  S
C549        C550   1.401       .  D
C549        H551   1.081       .  S
C550        H552   1.082       .  S
C553        C554   1.212       .  T
C555        C556   1.213       .  T
C557        C558   1.211       .  T
C559        C560   1.213       .  T
C560        C561   1.426       .  S
C563        C564   1.211       .  T
C564        C565   1.423       .  S
C565       C1214   1.212   1_455  T
C566       C1213   1.213       .  T
C567        C568   1.212       .  T
C568        C569   1.423       .  S
C569        C570   1.212       .  T
C571        H573   1.080       .  S
C572        H574   1.081       .  S
C575       C1224   1.402   1_455  D
C575        H577   1.081       .  S
C576       C1223   1.404       .  D
C576        H578   1.081       .  S
C579        C580   1.405       .  D
C579        H581   1.081       .  S
C580        H582   1.081       .  S
C583        C584   1.215       .  T
C584        C585   1.429       .  S
C585        C586   1.215       .  T
C587        C588   1.215       .  T
C588        C589   1.428       .  S
C589        C590   1.215       .  T
C591        C592   1.213       .  T
C592        C593   1.424       .  S
C593        C594   1.212       .  T
C595        C596   1.215       .  T
C596        C597   1.428       .  S
C597        C598   1.215       .  T
C599        C600   1.213       .  T
C600        C601   1.425       .  S
C601        C602   1.213       .  T
C603        C604   1.213       .  T
C604        C605   1.425       .  S
C605        C606   1.213       .  T
C607        C608   1.406       .  D
C607        H609   1.080       .  S
C608        H610   1.080       .  S
C611        C612   1.403       .  D
C611        H613   1.081       .  S
C612        H614   1.081       .  S
C615        C616   1.405       .  D
C615        H617   1.080       .  S
C616        H618   1.081       .  S
C619        C620   1.212       .  T
C620        C621   1.424       .  S
C621        C622   1.212       .  T
C623        C624   1.213       .  T
C624        C625   1.425       .  S
C625        C626   1.213       .  T
C627        C628   1.213       .  T
C628        C629   1.425       .  S
C629        C630   1.213       .  T
C631        C632   1.212       .  T
C633        C634   1.211   1_455  T
C635        C636   1.210       .  T
C638        C639   1.423       .  S
C639        C640   1.211       .  T
C641        C642   1.212       .  T
C642        C643   1.424       .  S
C643       C1292   1.213       .  T
C644       C1291   1.214   1_455  T
C645        C646   1.214       .  T
C646        C647   1.426       .  S
C647        C648   1.214       .  T
Zn649       O653   1.960       .  S
Zn649       O654   2.049       .  S
Zn649       O658   2.106       .  S
Zn649       O665   2.007       .  S
Zn650       O653   1.965       .  S
Zn650       O655   2.095       .  S
Zn650       O657   2.009       .  S
Zn650       O661   2.048       .  S
Zn651       O653   1.896       .  S
Zn651       O656   1.938       .  S
Zn651       O659   1.937       .  S
Zn651       O662   1.932       .  S
Zn652       O653   1.962       .  S
Zn652       O660   2.116       .  S
Zn652       O663   2.008       .  S
Zn652       O664   2.050       .  S
O654        C666   1.277       .  A
O655        C667   1.283       .  A
O656        C668   1.260       .  A
O657        C666   1.272       .  A
O658        C668   1.284       .  A
O659        C667   1.261       .  A
O660        C669   1.285       .  A
O661        C670   1.277       .  A
O662        C669   1.259       .  A
O663        C670   1.272       .  A
O664        C671   1.278       .  A
O665        C671   1.272       .  A
C666        C972   1.447       .  S
C667        C959   1.436       .  S
C668        C957   1.440       .  S
C669        C955   1.443       .  S
C670        C961   1.446       .  S
C671        C968   1.446       .  S
Zn672      O1005   2.034       .  S
Zn672       O688   2.121   1_565  S
Zn673      O1000   1.949   1_545  S
Zn673      O1002   2.029       .  S
Zn673       O680   2.029       .  S
Zn673       O684   2.119       .  S
Zn674       O679   2.012   1_455  S
Zn674       O685   2.105   1_455  S
Zn675       O676   1.834       .  S
Zn675      O1010   1.924       .  S
O676       Zn997   1.920       .  S
O677        C689   1.274       .  A
O678       Zn997   2.023       .  S
O678        C690   1.274       .  A
O679        C691   1.272       .  A
O680        C689   1.277       .  A
O681       Zn996   2.030       .  S
O681        C691   1.278       .  A
O682        C690   1.281       .  A
O683        C692   1.262       .  A
O684        C693   1.284       .  A
O685        C692   1.283       .  A
O686       Zn999   1.923   1_545  S
O686        C693   1.259       .  A
O687        C694   1.256       .  A
O688        C694   1.284       .  A
C689        C958   1.444       .  S
C690        C956   1.448       .  S
C691        C960   1.439       .  S
C692        C946   1.438       .  S
C693        C951   1.441       .  S
C694        C947   1.440       .  S
C695        H696   1.110       .  S
C695        C701   1.622       .  S
C695        C700   1.619       .  S
C695        C699   1.622       .  S
C697        H698   1.117       .  S
C697        C703   1.521       .  S
C697        C702   1.520       .  S
C697        C704   1.519       .  S
C699        C702   1.381       .  D
C699        C932   1.573       .  S
C700        C703   1.379       .  D
C700        C936   1.574       .  S
C701        C704   1.382       .  D
C701        C939   1.570       .  S
C702        C926   1.449       .  S
C703        C919   1.446       .  S
C704        C930   1.454       .  S
C705       H1030   1.110       .  S
C705       C1034   1.622   1_445  S
H706       C1029   1.110       .  S
C707       C1037   1.519   1_445  S
C709        C712   1.381       .  D
C709        C940   1.571       .  S
C710       C1029   1.622   1_655  S
C710        C713   1.380       .  D
C710        C935   1.573       .  S
C711        C714   1.378       .  D
C711        C931   1.572       .  S
C712        C918   1.448       .  S
C713       C1031   1.518   1_655  S
C713        C910   1.448       .  S
C714        C911   1.445       .  S
C715        H716   1.116       .  S
C715        C721   1.521       .  S
C715        C720   1.520       .  S
C715        C719   1.519       .  S
C717        H718   1.110       .  S
C717        C723   1.620       .  S
C717        C722   1.618       .  S
C717        C724   1.618       .  S
C719        C722   1.381       .  D
C719        C883   1.452       .  S
C720        C723   1.380       .  D
C720        C891   1.450       .  S
C721        C724   1.378       .  D
C721        C887   1.445       .  S
C722        C896   1.566       .  S
C723        C903   1.571       .  S
C724        C899   1.571       .  S
C725        H726   1.116       .  S
C725        C731   1.526       .  S
C725        C730   1.524       .  S
C725        C729   1.525       .  S
C727        H728   1.110       .  S
C727        C733   1.616       .  S
C727        C732   1.615       .  S
C727        C734   1.617       .  S
C729        C732   1.378       .  D
C729        C964   1.450       .  S
C730        C733   1.381       .  D
C730        C965   1.453       .  S
C731        C734   1.381       .  D
C731        C969   1.453       .  S
C732        C895   1.568       .  S
C733        C900   1.568       .  S
C734        C904   1.571       .  S
Zn735       O739   1.843       .  S
Zn735       O740   1.945       .  S
Zn735       O744   1.944       .  S
Zn735       O751   1.932       .  S
Zn736       O739   1.927       .  S
Zn736       O741   2.026       .  S
Zn736       O743   2.117       .  S
Zn736       O747   2.043       .  S
Zn737       O739   1.931       .  S
Zn737       O742   2.134       .  S
Zn737       O745   2.033       .  S
Zn737       O748   2.038       .  S
Zn738       O739   1.924       .  S
Zn738       O746   2.038       .  S
Zn738       O749   2.029       .  S
Zn738       O750   2.124       .  S
O740        C752   1.263       .  A
O741        C753   1.275       .  A
O742        C754   1.285       .  A
O743        C752   1.285       .  A
O744        C754   1.260       .  A
O745        C753   1.278       .  A
O746        C755   1.279       .  A
O747        C756   1.279       .  A
O748        C755   1.277       .  A
O749        C756   1.275       .  A
O750        C757   1.286       .  A
O751        C757   1.261       .  A
C752        C886   1.443       .  S
C753        C878   1.443       .  S
C754        C890   1.448   1_655  S
C755        C879   1.448       .  S
C756        C881   1.448       .  S
C757        C894   1.443       .  S
Zn758      O1087   2.028       .  S
Zn758       O767   2.111       .  S
Zn758       O774   2.033       .  S
Zn759       O762   1.979   1_545  S
Zn759       O764   2.132       .  S
Zn759       O770   2.035       .  S
Zn760       O762   1.895       .  S
Zn760       O768   1.908   1_565  S
Zn760      O1095   1.909       .  S
Zn761      O1086   1.929       .  S
Zn761       O769   2.120       .  S
Zn761      O1096   2.027       .  S
O762      Zn1085   1.978       .  S
O763      Zn1082   2.021       .  S
O763        C775   1.273   1_565  A
O764        C776   1.285       .  A
O765        C777   1.256       .  A
O766        C775   1.276       .  A
O767        C777   1.282       .  A
O768        C776   1.256       .  A
O769        C778   1.285       .  A
O770        C779   1.275       .  A
O771      Zn1084   1.933       .  S
O771        C778   1.261       .  A
O772      Zn1085   2.034   1_545  S
O772        C779   1.277       .  A
O773        C780   1.274   1_455  A
O774        C780   1.276       .  A
C775        C877   1.443       .  S
C776        C927   1.444       .  S
C777        C922   1.436       .  S
C778        C923   1.441       .  S
C779        C882   1.448       .  S
C780        C880   1.448       .  S
C781        H782   1.116       .  S
C781        C787   1.522       .  S
C781        C786   1.521       .  S
C781        C785   1.521       .  S
C783        H784   1.110       .  S
C783        C789   1.616       .  S
C783        C788   1.616       .  S
C783        C790   1.617       .  S
C785        C788   1.380       .  D
C785        C954   1.451       .  S
C786        C789   1.377       .  D
C786        C943   1.446       .  S
C787        C790   1.380       .  D
C787        C950   1.450       .  S
C788        C873   1.565       .  S
C789        C870   1.567       .  S
C790        C866   1.570       .  S
C791        C797   1.619       .  S
C793        H794   1.117   1_545  S
C793        C800   1.519       .  S
C795        C798   1.378       .  D
C795        C869   1.569       .  S
C796        C799   1.380       .  D
C796        C865   1.573       .  S
C797        C800   1.381       .  D
C797        C874   1.568       .  S
C798        C853   1.445       .  S
C799        C860   1.448       .  S
C800        C861   1.449       .  S
Zn801       O805   1.975       .  S
Zn801       O806   2.021       .  S
Zn801       O810   2.115       .  S
Zn801       O817   2.025       .  S
Zn802       O805   1.975       .  S
Zn802       O807   2.116       .  S
Zn802       O809   2.028       .  S
Zn802       O813   2.025       .  S
Zn803       O805   1.888       .  S
Zn803       O808   1.905       .  S
Zn803       O811   1.905       .  S
Zn803       O814   1.904       .  S
Zn804       O805   1.974       .  S
Zn804       O812   2.109       .  S
Zn804       O815   2.025       .  S
Zn804       O816   2.017       .  S
O806        C818   1.273       .  A
O807        C819   1.283       .  A
O808        C820   1.255       .  A
O809        C818   1.276       .  A
O810        C820   1.282       .  A
O811        C819   1.255       .  A
O812        C821   1.282       .  A
O813        C822   1.273       .  A
O814        C821   1.255       .  A
O815        C822   1.275       .  A
O816        C823   1.273       .  A
O817        C823   1.276       .  A
C818        C848   1.443       .  S
C819        C907   1.439       .  S
C820        C915   1.438       .  S
C821        C914   1.436       .  S
C822        C849   1.444       .  S
C823        C852   1.441       .  S
Zn824       O828   1.840       .  S
Zn824       O829   1.941       .  S
Zn824       O833   1.946       .  S
Zn824       O840   1.940       .  S
Zn825       O828   1.921       .  S
Zn825       O830   2.023       .  S
Zn825       O832   2.121       .  S
Zn825       O836   2.038       .  S
Zn826       O828   1.920       .  S
Zn826       O831   2.105       .  S
Zn826       O834   2.032       .  S
Zn826       O837   2.023       .  S
Zn827       O828   1.924       .  S
Zn827       O835   2.040       .  S
Zn827       O838   2.021       .  S
Zn827       O839   2.118       .  S
O829        C841   1.261       .  A
O830        C842   1.275       .  A
O831        C843   1.284       .  A
O832        C841   1.285       .  A
O833        C843   1.262       .  A
O834        C842   1.278       .  A
O835        C844   1.279       .  A
O836        C845   1.279       .  A
O837        C844   1.275       .  A
O838        C845   1.275       .  A
O839        C846   1.284       .  A
O840        C846   1.260       .  A
C841        C864   1.443       .  S
C842        C847   1.443       .  S
C843        C856   1.439       .  S
C844        C851   1.445       .  S
C845        C850   1.443       .  S
C846        C857   1.442       .  S
C847        C848   1.212   1_554  T
C849       C1174   1.212   1_556  T
C850       C1173   1.212   1_544  T
C853        C854   1.210       .  T
C854        C855   1.420       .  S
C855        C856   1.211       .  T
C857        C858   1.213       .  T
C858        C859   1.425       .  S
C859        C860   1.212       .  T
C861        C862   1.213       .  T
C862        C863   1.425       .  S
C863        C864   1.214       .  T
C865        C866   1.404       .  D
C865        H867   1.082       .  S
C866        H868   1.080       .  S
C869        C870   1.404       .  D
C869        H871   1.081       .  S
C870        H872   1.079       .  S
C873        C874   1.401       .  D
C873        H875   1.080       .  S
C874        H876   1.082       .  S
C877        C878   1.212       .  T
C879        C880   1.214       .  T
C881        C882   1.214       .  T
C883        C884   1.215       .  T
C884        C885   1.428       .  S
C885       C1210   1.215       .  T
C886       C1209   1.213   1_545  T
C887        C888   1.211       .  T
C888        C889   1.422       .  S
C891        C892   1.213       .  T
C892        C893   1.426       .  S
C893        C894   1.214       .  T
C895       C1220   1.403   1_545  D
C895        H897   1.080       .  S
C896       C1219   1.402       .  D
C896        H898   1.081       .  S
C899        H901   1.081       .  S
C900        H902   1.081       .  S
C903        C904   1.404       .  D
C903        H905   1.081       .  S
C904        H906   1.081       .  S
C907        C908   1.213       .  T
C908        C909   1.425       .  S
C909        C910   1.213       .  T
C911        C912   1.211       .  T
C912        C913   1.423       .  S
C913        C914   1.211       .  T
C915        C916   1.213       .  T
C916        C917   1.425       .  S
C917        C918   1.213       .  T
C919        C920   1.211       .  T
C920        C921   1.423       .  S
C921        C922   1.212       .  T
C923        C924   1.213       .  T
C924        C925   1.425       .  S
C925        C926   1.213       .  T
C927        C928   1.216       .  T
C928        C929   1.430       .  S
C929        C930   1.216       .  T
C931        C932   1.406       .  D
C931        H933   1.080       .  S
C932        H934   1.081       .  S
C935        C936   1.406       .  D
C935        H937   1.081       .  S
C936        H938   1.081       .  S
C939        C940   1.403       .  D
C939        H941   1.080       .  S
C940        H942   1.081       .  S
C943        C944   1.210       .  T
C944        C945   1.421       .  S
C945        C946   1.211       .  T
C947        C948   1.214       .  T
C948        C949   1.427       .  S
C949        C950   1.214       .  T
C951        C952   1.214       .  T
C952        C953   1.426       .  S
C953        C954   1.214       .  T
C955        C956   1.214       .  T
C957        C958   1.212       .  T
C959        C960   1.209       .  T
C961       C1286   1.214       .  T
C962       C1285   1.212   1_545  T
C962        C963   1.423       .  S
C963        C964   1.212       .  T
C965        C966   1.214       .  T
C966        C967   1.427       .  S
C969        C970   1.214       .  T
C970        C971   1.427       .  S
C971        C972   1.215       .  T
Zn973       O977   1.969       .  S
Zn973       O978   2.043       .  S
Zn973       O982   2.097       .  S
Zn973       O989   2.007       .  S
Zn974       O977   1.965       .  S
Zn974       O979   2.101       .  S
Zn974       O981   2.008       .  S
Zn974       O985   2.041       .  S
Zn975       O977   1.896       .  S
Zn975       O980   1.921       .  S
Zn975       O983   1.924       .  S
Zn975       O986   1.937       .  S
Zn976       O977   1.964       .  S
Zn976       O984   2.104       .  S
Zn976       O987   2.009       .  S
Zn976       O988   2.044       .  S
O978        C990   1.277       .  A
O979        C991   1.282       .  A
O980        C992   1.258       .  A
O981        C990   1.272       .  A
O982        C992   1.282       .  A
O983        C991   1.258       .  A
O984        C993   1.283       .  A
O985        C994   1.277       .  A
O986        C993   1.260       .  A
O987        C994   1.272       .  A
O988        C995   1.276       .  A
O989        C995   1.271       .  A
C990       C1296   1.444       .  S
C991       C1283   1.436       .  S
C992       C1281   1.434       .  S
C993       C1279   1.441       .  S
C994       C1285   1.443       .  S
C995       C1292   1.444       .  S
Zn996      O1012   2.111       .  S
Zn997      O1004   2.031       .  S
Zn997      O1008   2.125       .  S
Zn998      O1003   2.009   1_455  S
Zn998      O1009   2.102   1_455  S
Zn999      O1000   1.863       .  S
O1001      C1013   1.273       .  A
O1002      C1014   1.274   1_545  A
O1003      C1015   1.271       .  A
O1004      C1013   1.280       .  A
O1005      C1015   1.278       .  A
O1006      C1014   1.278       .  A
O1007      C1016   1.257       .  A
O1008      C1017   1.286       .  A
O1009      C1016   1.282       .  A
O1010      C1017   1.260       .  A
O1011      C1018   1.262       .  A
O1012      C1018   1.284       .  A
C1013      C1282   1.439       .  S
C1014      C1280   1.445       .  S
C1015      C1284   1.442       .  S
C1016      C1270   1.433       .  S
C1017      C1275   1.440       .  S
C1018      C1271   1.440       .  S
C1019      H1020   1.110       .  S
C1019      C1025   1.621       .  S
C1019      C1024   1.619       .  S
C1019      C1023   1.620       .  S
C1021      H1022   1.116       .  S
C1021      C1027   1.521       .  S
C1021      C1026   1.519       .  S
C1021      C1028   1.520       .  S
C1023      C1026   1.381       .  D
C1023      C1256   1.569       .  S
C1024      C1027   1.377       .  D
C1024      C1260   1.573       .  S
C1025      C1028   1.381       .  D
C1025      C1263   1.572       .  S
C1026      C1250   1.452       .  S
C1027      C1243   1.443       .  S
C1028      C1254   1.450       .  S
C1033      C1036   1.382       .  D
C1033      C1264   1.568       .  S
C1034      C1037   1.380       .  D
C1034      C1259   1.573       .  S
C1035      C1038   1.378       .  D
C1035      C1255   1.572       .  S
C1036      C1242   1.451       .  S
C1037      C1234   1.449       .  S
C1038      C1235   1.446       .  S
C1039      H1040   1.116       .  S
C1039      C1045   1.521       .  S
C1039      C1044   1.520       .  S
C1039      C1043   1.519       .  S
C1041      H1042   1.110       .  S
C1041      C1047   1.621       .  S
C1041      C1046   1.621       .  S
C1041      C1048   1.618       .  S
C1043      C1046   1.380       .  D
C1043      C1207   1.450       .  S
C1044      C1047   1.378       .  D
C1044      C1215   1.447       .  S
C1045      C1048   1.379       .  D
C1045      C1211   1.449       .  S
C1046      C1220   1.569       .  S
C1047      C1227   1.571       .  S
C1048      C1223   1.569       .  S
C1049      H1050   1.116       .  S
C1049      C1055   1.525       .  S
C1049      C1054   1.523       .  S
C1049      C1053   1.524       .  S
C1051      H1052   1.110       .  S
C1051      C1057   1.615       .  S
C1051      C1056   1.617       .  S
C1051      C1058   1.617       .  S
C1053      C1056   1.379       .  D
C1053      C1288   1.452       .  S
C1054      C1057   1.380       .  D
C1054      C1289   1.452       .  S
C1055      C1058   1.379       .  D
C1055      C1293   1.449       .  S
C1056      C1219   1.568       .  S
C1057      C1224   1.566       .  S
C1058      C1228   1.571       .  S
Zn1059     O1063   1.848       .  S
Zn1059     O1064   1.939       .  S
Zn1059     O1068   1.945       .  S
Zn1059     O1075   1.940       .  S
Zn1060     O1063   1.928       .  S
Zn1060     O1065   2.033       .  S
Zn1060     O1067   2.126       .  S
Zn1060     O1071   2.035       .  S
Zn1061     O1063   1.928       .  S
Zn1061     O1066   2.107       .  S
Zn1061     O1069   2.031       .  S
Zn1061     O1072   2.029       .  S
Zn1062     O1063   1.934       .  S
Zn1062     O1070   2.030       .  S
Zn1062     O1073   2.018       .  S
Zn1062     O1074   2.110       .  S
O1064      C1076   1.261       .  A
O1065      C1077   1.276       .  A
O1066      C1078   1.284       .  A
O1067      C1076   1.286       .  A
O1068      C1078   1.262       .  A
O1069      C1077   1.277       .  A
O1070      C1079   1.277       .  A
O1071      C1080   1.279       .  A
O1072      C1079   1.275       .  A
O1073      C1080   1.275       .  A
O1074      C1081   1.282       .  A
O1075      C1081   1.260       .  A
C1076      C1210   1.445       .  S
C1077      C1202   1.445       .  S
C1078      C1214   1.440       .  S
C1079      C1203   1.444       .  S
C1080      C1205   1.441       .  S
C1081      C1218   1.439       .  S
Zn1082     O1091   2.099       .  S
Zn1082     O1098   2.022       .  S
Zn1083     O1086   1.934       .  S
Zn1083     O1088   2.114       .  S
Zn1083     O1094   2.021       .  S
Zn1084     O1086   1.850       .  S
Zn1084     O1092   1.945       .  S
Zn1085     O1093   2.122       .  S
O1087      C1099   1.274       .  A
O1088      C1100   1.283       .  A
O1089      C1101   1.256       .  A
O1090      C1099   1.276       .  A
O1091      C1101   1.281       .  A
O1092      C1100   1.261       .  A
O1093      C1102   1.283       .  A
O1094      C1103   1.275       .  A
O1095      C1102   1.255       .  A
O1096      C1103   1.278       .  A
O1097      C1104   1.274   1_455  A
O1098      C1104   1.274       .  A
C1099      C1201   1.445       .  S
C1100      C1251   1.443       .  S
C1101      C1246   1.433       .  S
C1102      C1247   1.442       .  S
C1103      C1206   1.441       .  S
C1104      C1204   1.444       .  S
C1105      H1106   1.116       .  S
C1105      C1111   1.518       .  S
C1105      C1110   1.520       .  S
C1105      C1109   1.518       .  S
C1107      H1108   1.110       .  S
C1107      C1113   1.618       .  S
C1107      C1112   1.618       .  S
C1107      C1114   1.621       .  S
C1109      C1112   1.378       .  D
C1109      C1278   1.449       .  S
C1110      C1113   1.377       .  D
C1110      C1267   1.443       .  S
C1111      C1114   1.376       .  D
C1111      C1274   1.447       .  S
C1112      C1197   1.564       .  S
C1113      C1194   1.570       .  S
C1114      C1190   1.568       .  S
C1115      C1121   1.618       .  S
C1117      H1118   1.116       .  S
C1117      C1124   1.518       .  S
C1119      C1122   1.379       .  D
C1119      C1193   1.572       .  S
C1120      C1123   1.377       .  D
C1120      C1189   1.569       .  S
C1121      C1124   1.378       .  D
C1121      C1198   1.567       .  S
C1122      C1177   1.447       .  S
C1123      C1184   1.445       .  S
C1124      C1185   1.446       .  S
Zn1125     O1129   1.971       .  S
Zn1125     O1130   2.029       .  S
Zn1125     O1134   2.133       .  S
Zn1125     O1141   2.039       .  S
Zn1126     O1129   1.975       .  S
Zn1126     O1131   2.113       .  S
Zn1126     O1133   2.028       .  S
Zn1126     O1137   2.024       .  S
Zn1127     O1129   1.888       .  S
Zn1127     O1132   1.895       .  S
Zn1127     O1135   1.912       .  S
Zn1127     O1138   1.907       .  S
Zn1128     O1129   1.974       .  S
Zn1128     O1136   2.108       .  S
Zn1128     O1139   2.023       .  S
Zn1128     O1140   2.024       .  S
O1130      C1142   1.274       .  A
O1131      C1143   1.282       .  A
O1132      C1144   1.254       .  A
O1133      C1142   1.276       .  A
O1134      C1144   1.285       .  A
O1135      C1143   1.256       .  A
O1136      C1145   1.282       .  A
O1137      C1146   1.273       .  A
O1138      C1145   1.256       .  A
O1139      C1146   1.274       .  A
O1140      C1147   1.274       .  A
O1141      C1147   1.278       .  A
C1142      C1172   1.445       .  S
C1143      C1231   1.440       .  S
C1144      C1239   1.441       .  S
C1145      C1238   1.436       .  S
C1146      C1173   1.444       .  S
C1147      C1176   1.446       .  S
Zn1148     O1152   1.842       .  S
Zn1148     O1153   1.944       .  S
Zn1148     O1157   1.940       .  S
Zn1148     O1164   1.938       .  S
Zn1149     O1152   1.922       .  S
Zn1149     O1154   2.024       .  S
Zn1149     O1156   2.107       .  S
Zn1149     O1160   2.034       .  S
Zn1150     O1152   1.926       .  S
Zn1150     O1155   2.114       .  S
Zn1150     O1158   2.035       .  S
Zn1150     O1161   2.023       .  S
Zn1151     O1152   1.924       .  S
Zn1151     O1159   2.021       .  S
Zn1151     O1162   2.020       .  S
Zn1151     O1163   2.106       .  S
O1153      C1165   1.263       .  A
O1154      C1166   1.275       .  A
O1155      C1167   1.284       .  A
O1156      C1165   1.284       .  A
O1157      C1167   1.260       .  A
O1158      C1166   1.278       .  A
O1159      C1168   1.277       .  A
O1160      C1169   1.278       .  A
O1161      C1168   1.275       .  A
O1162      C1169   1.275       .  A
O1163      C1170   1.283       .  A
O1164      C1170   1.261       .  A
C1165      C1188   1.439       .  S
C1166      C1171   1.444       .  S
C1167      C1180   1.440       .  S
C1168      C1175   1.440       .  S
C1169      C1174   1.444       .  S
C1170      C1181   1.438       .  S
C1171      C1172   1.213   1_554  T
C1177      C1178   1.211       .  T
C1178      C1179   1.423       .  S
C1179      C1180   1.212       .  T
C1181      C1182   1.211       .  T
C1182      C1183   1.420       .  S
C1183      C1184   1.210       .  T
C1185      C1186   1.210       .  T
C1186      C1187   1.421       .  S
C1187      C1188   1.211       .  T
C1189      C1190   1.405       .  D
C1189      H1191   1.081       .  S
C1190      H1192   1.080       .  S
C1193      C1194   1.405       .  D
C1193      H1195   1.082       .  S
C1194      H1196   1.080       .  S
C1197      C1198   1.402       .  D
C1197      H1199   1.080       .  S
C1198      H1200   1.082       .  S
C1201      C1202   1.213       .  T
C1203      C1204   1.212       .  T
C1205      C1206   1.211       .  T
C1207      C1208   1.213       .  T
C1208      C1209   1.425       .  S
C1211      C1212   1.212       .  T
C1212      C1213   1.425       .  S
C1215      C1216   1.211       .  T
C1216      C1217   1.422       .  S
C1217      C1218   1.212       .  T
C1219      H1221   1.081       .  S
C1220      H1222   1.081       .  S
C1223      H1225   1.081       .  S
C1224      H1226   1.080       .  S
C1227      C1228   1.405       .  D
C1227      H1229   1.081       .  S
C1228      H1230   1.081       .  S
C1231      C1232   1.213       .  T
C1232      C1233   1.425       .  S
C1233      C1234   1.213       .  T
C1235      C1236   1.211       .  T
C1236      C1237   1.423       .  S
C1237      C1238   1.212       .  T
C1239      C1240   1.216       .  T
C1240      C1241   1.430       .  S
C1241      C1242   1.216       .  T
C1243      C1244   1.209       .  T
C1244      C1245   1.420       .  S
C1245      C1246   1.210       .  T
C1247      C1248   1.215       .  T
C1248      C1249   1.428       .  S
C1249      C1250   1.215       .  T
C1251      C1252   1.214       .  T
C1252      C1253   1.425       .  S
C1253      C1254   1.213       .  T
C1255      C1256   1.404       .  D
C1255      H1257   1.081       .  S
C1256      H1258   1.080       .  S
C1259      C1260   1.406       .  D
C1259      H1261   1.080       .  S
C1260      H1262   1.080       .  S
C1263      C1264   1.403       .  D
C1263      H1265   1.082       .  S
C1264      H1266   1.079       .  S
C1267      C1268   1.209       .  T
C1268      C1269   1.420       .  S
C1269      C1270   1.210       .  T
C1271      C1272   1.211       .  T
C1272      C1273   1.422       .  S
C1273      C1274   1.211       .  T
C1275      C1276   1.213       .  T
C1276      C1277   1.425       .  S
C1277      C1278   1.212       .  T
C1279      C1280   1.212       .  T
C1281      C1282   1.209       .  T
C1283      C1284   1.210       .  T
C1286      C1287   1.425       .  S
C1287      C1288   1.213       .  T
C1289      C1290   1.213       .  T
C1290      C1291   1.425       .  S
C1293      C1294   1.212       .  T
C1294      C1295   1.423       .  S
C1295      C1296   1.212       .  T
