geometry optimzed in LAMMPS
_audit_creation_date              2020-11-30 
_audit_creation_method            'lammps2cif' 
_symmetry_space_group_name_H-M    'P1' 
_symmetry_Int_Tables_number       1 
_symmetry_cell_setting            triclinic 
loop_ 
_symmetry_equiv_pos_as_xyz 
  x,y,z 
_cell_length_a                    36.16467807 
_cell_length_b                    36.185295774823366 
_cell_length_c                    39.747220729292835 
_cell_angle_alpha                 90.14449226135288 
_cell_angle_beta                  89.6436060361918 
_cell_angle_gamma                 119.88747456309432 
loop_ 
_atom_site_label 
_atom_site_type_symbol 
_atom_site_fract_x 
_atom_site_fract_y 
_atom_site_fract_z 
_atom_site_charge 
O1          O  0.69376551  0.89251321  0.10547176    -0.85100
O2          O  0.69338155  0.87221324  0.17263322    -0.82100
C3          C  0.66834769  0.88366936  0.18488545     0.98400
O4          O  0.62897812  0.86248883  0.17911218    -0.82200
O5          O  0.55298168  0.80656221  0.14974989    -0.84800
C6          C  0.54892336  0.82517955  0.12447885     1.02900
O7          O  0.57310314  0.83358643  0.09921266    -0.77600
O8          O  0.64812369  0.85568865  0.06543418    -0.77800
C9          C  0.67803952  0.89059437  0.07681024     1.02800
O10         O  0.69594346  0.81830844  0.08589980    -0.85100
O11         O  0.68611345  0.79246569  0.15226903    -0.82200
C12         C  0.67100393  0.78241668  0.18161233     0.98400
O13         O  0.64457120  0.79292918  0.19242681    -0.82200
O14         O  0.57205141  0.73978744  0.15609873    -0.84800
C15         C  0.54981780  0.72421872  0.13000867     1.02900
O16         O  0.55509402  0.74697912  0.10431822    -0.77600
O17         O  0.63100016  0.76857764  0.07406320    -0.77800
C18         C  0.67064761  0.78441472  0.07076459     1.02800
Cr19       Cr  0.68774355  0.84167617  0.12904706     1.93700
Cr20       Cr  0.60211102  0.80163354  0.16630438     1.93200
Cr21       Cr  0.60414652  0.80234476  0.08878045     1.39100
O22         O  0.63110859  0.81524699  0.12784359    -1.22900
O23         O  0.22092972  0.89257822  0.14587728    -0.85100
O24         O  0.19723567  0.87552432  0.07936394    -0.82100
C25         C  0.23251004  0.88570517  0.06536663     0.98400
O26         O  0.24987508  0.86344413  0.06992976    -0.82200
O27         O  0.26936169  0.80652826  0.09862424    -0.84800
C28         C  0.29189249  0.82389116  0.12429749     1.02900
O29         O  0.27606065  0.83101261  0.15021180    -0.77600
O30         O  0.22331555  0.85217792  0.18602240    -0.77800
C31         C  0.23215221  0.88851869  0.17497220     1.02800
O32         O  0.14178731  0.81981802  0.16627236    -0.85100
O33         O  0.12353863  0.79738386  0.09933187    -0.82200
C34         C  0.12739750  0.78714505  0.06970954     0.98400
O35         O  0.16352837  0.79536327  0.05830879    -0.82200
O36         O  0.18269615  0.74026895  0.09196160    -0.84800
C37         C  0.18920887  0.72350329  0.11739047     1.02900
O38         O  0.20742626  0.74530918  0.14322041    -0.77600
O39         O  0.15303739  0.76656292  0.17442852    -0.77800
C40         C  0.13095424  0.78409153  0.17951606     1.02800
Cr41       Cr  0.17303988  0.84408729  0.12270603     1.93700
Cr42       Cr  0.21519936  0.80243855  0.08278135     1.93200
Cr43       Cr  0.21393219  0.80003402  0.16048361     1.39100
O44         O  0.20082755  0.81531335  0.12200293    -1.22900
O45         O  0.12367559  0.32578046  0.14498408    -0.85100
O46         O  0.14744718  0.32677639  0.07842215    -0.82100
C47         C  0.13715734  0.35201508  0.06505430     0.98400
O48         O  0.15795696  0.39133232  0.07116676    -0.82200
O49         O  0.21064528  0.46681660  0.10244235    -0.84800
C50         C  0.18899286  0.46912922  0.12648936     1.02900
O51         O  0.17948803  0.44476819  0.15158186    -0.77600
O52         O  0.15767767  0.37111836  0.18595067    -0.77800
C53         C  0.12376376  0.34098628  0.17362549     1.02800
O54         O  0.19756162  0.32465580  0.16703750    -0.85100
O55         O  0.22631244  0.33427590  0.10126115    -0.82200
C56         C  0.23740235  0.34922180  0.07198396     0.98400
O57         O  0.22839065  0.37653495  0.06101716    -0.82200
O58         O  0.27878438  0.44859448  0.09930444    -0.84800
C59         C  0.29222256  0.47110613  0.12554545     1.02900
O60         O  0.26734624  0.46582186  0.14991456    -0.77600
O61         O  0.24562549  0.38995135  0.18017589    -0.77800
C62         C  0.23055022  0.35035020  0.18296490     1.02800
Cr63       Cr  0.17588757  0.33243700  0.12302311     1.93700
Cr64       Cr  0.21771622  0.41841671  0.08651775     1.93200
Cr65       Cr  0.21169648  0.41567191  0.16385896     1.39100
O66         O  0.20172335  0.38897155  0.12463187    -1.22900
O67         O  0.89519100  0.67860293  0.39901785    -0.85100
O68         O  0.87848655  0.68268601  0.33175954    -0.82100
C69         C  0.88866899  0.65727452  0.31837181     0.98400
O70         O  0.86602922  0.61770594  0.32328895    -0.82200
O71         O  0.81001794  0.54296738  0.35515168    -0.84800
C72         C  0.82910836  0.54011296  0.38069687     1.02900
O73         O  0.83634029  0.56407113  0.40584453    -0.77600
O74         O  0.85415510  0.63774423  0.43987268    -0.77800
C75         C  0.89059715  0.66498543  0.42879590     1.02800
O76         O  0.82139763  0.68431675  0.41752269    -0.85100
O77         O  0.79960558  0.67818411  0.35077096    -0.82200
C78         C  0.78852053  0.66256574  0.32174913     0.98400
O79         O  0.79718165  0.63473221  0.31104518    -0.82200
O80         O  0.74287965  0.56260003  0.34735732    -0.84800
C81         C  0.72674729  0.53990970  0.37324256     1.02900
O82         O  0.74957574  0.54353307  0.39832816    -0.77600
O83         O  0.76838127  0.61982951  0.42648342    -0.77800
C84         C  0.78556527  0.65946453  0.43071528     1.02800
Cr85       Cr  0.84659165  0.67669890  0.37478151     1.93700
Cr86       Cr  0.80503824  0.59167572  0.33712861     1.93200
Cr87       Cr  0.80332633  0.59340543  0.41462282     1.39100
O88         O  0.81833422  0.62038668  0.37546388    -1.22900
O89         O  0.82798737  0.13823932  0.42131629    -0.85100
O90         O  0.80178586  0.11732899  0.35539795    -0.82100
C91         C  0.78832762  0.11952913  0.32675223     0.98400
O92         O  0.79438112  0.15469287  0.31514280    -0.82200
O93         O  0.74452000  0.17742281  0.35220063    -0.84800
C94         C  0.73097508  0.18798102  0.37764449     1.02900
O95         O  0.75553575  0.20756538  0.40190516    -0.77600
O96         O  0.77677282  0.15228081  0.43207153    -0.77800
C97         C  0.79383365  0.12967998  0.43653817     1.02800
O98         O  0.90047710  0.21427003  0.39761586    -0.85100
O99         O  0.87841826  0.18922980  0.33167551    -0.82200
C100        C  0.88752978  0.22395686  0.31743023     0.98400
O101        O  0.86524712  0.24119795  0.32274486    -0.82200
O102        O  0.81267267  0.26395149  0.35462510    -0.84800
C103        C  0.83370045  0.28802971  0.37871408     1.02900
O104        O  0.84306052  0.27343621  0.40397876    -0.77600
O105        O  0.86415086  0.22152663  0.43914922    -0.77800
C106        C  0.89901751  0.22749997  0.42663763     1.02800
Cr107      Cr  0.84988302  0.16707079  0.37656698     1.93700
Cr108      Cr  0.80556395  0.20826628  0.33910249     1.93200
Cr109      Cr  0.81071018  0.21224407  0.41629527     1.39100
O110        O  0.82193395  0.19588087  0.37732316    -1.22900
O111        O  0.33419248  0.11895081  0.34879323    -0.85100
O112        O  0.32929375  0.13721640  0.41524952    -0.82100
C113        C  0.35477851  0.12673896  0.42772726     0.98400
O114        O  0.39441260  0.15010730  0.42350659    -0.82200
O115        O  0.47027077  0.20871880  0.39423639    -0.84800
C116        C  0.47540923  0.18997827  0.36938616     1.02900
O117        O  0.45164102  0.18053917  0.34392184    -0.77600
O118        O  0.37755322  0.15845555  0.30833077    -0.77800
C119        C  0.34944009  0.12250380  0.31958240     1.02800
O120        O  0.32784397  0.19126164  0.32863885    -0.85100
O121        O  0.33286198  0.21529787  0.39532381    -0.82200
C122        C  0.34731164  0.22621561  0.42471069     0.98400
O123        O  0.37451363  0.21719139  0.43596185    -0.82200
O124        O  0.44716247  0.27271742  0.40047346    -0.84800
C125        C  0.47045060  0.28907717  0.37483654     1.02900
O126        O  0.46776268  0.26663101  0.34949799    -0.77600
O127        O  0.39222203  0.24393062  0.31864465    -0.77800
C128        C  0.35253271  0.22639929  0.31458305     1.02800
Cr129      Cr  0.33538289  0.16797771  0.37200808     1.93700
Cr130      Cr  0.41933735  0.21097187  0.41058341     1.93200
Cr131      Cr  0.42007605  0.21115464  0.33304204     1.39100
O132        O  0.39182720  0.19683298  0.37177363    -1.22900
C133        C  0.62726185  0.16811271  0.36188135     0.30000
C134        C  0.59165074  0.15940588  0.34214602    -0.36300
C135        C  0.56135814  0.16782622  0.35723882     0.16000
C136        C  0.56589470  0.18348556  0.38956203     0.21800
C137        C  0.60107039  0.19166407  0.40937346    -0.34400
C138        C  0.63131076  0.18349580  0.39425801     0.15900
O139        O  0.66108866  0.16595053  0.35200575    -0.26500
C140        C  0.68694856  0.18007608  0.37846759     0.05700
C141        C  0.66993337  0.19124746  0.40548353    -0.31300
O142        O  0.53565537  0.19190499  0.39798385    -0.23200
C143        C  0.51112563  0.18149095  0.37084476    -0.03200
C144        C  0.52539340  0.16607909  0.34463699    -0.17600
H145        H  0.58858902  0.14839118  0.31643546     0.20400
H146        H  0.60535040  0.20500948  0.43439621     0.18800
H147        H  0.68482062  0.20513180  0.42929052     0.18700
H148        H  0.51233548  0.15683607  0.31960985     0.14600
C149        C  0.62156577  0.45931291  0.35857049     0.30000
C150        C  0.58776564  0.42885075  0.33918409    -0.36300
C151        C  0.55491374  0.39474859  0.35700373     0.16000
C152        C  0.55471869  0.39128870  0.39161378     0.21800
C153        C  0.58816830  0.42206484  0.41103188    -0.34400
C154        C  0.62145251  0.45562155  0.39315195     0.15900
O155        O  0.65788035  0.49084007  0.34686069    -0.26500
C156        C  0.68135200  0.50726876  0.37430685     0.05700
C157        C  0.66019869  0.48678003  0.40378657    -0.31300
O158        O  0.52327610  0.35464994  0.40272690    -0.23200
C159        C  0.50331858  0.33425686  0.37486567    -0.03200
C160        C  0.52146307  0.35772056  0.34570696    -0.17600
H161        H  0.58836747  0.43017730  0.31197743     0.20400
H162        H  0.58947691  0.41864197  0.43796760     0.18800
H163        H  0.67257248  0.49244853  0.42915082     0.18700
H164        H  0.51294956  0.34770926  0.31986357     0.14600
C165        C  0.84544818  0.45503288  0.36295832     0.30000
C166        C  0.84181172  0.42140878  0.34316420    -0.36300
C167        C  0.84691465  0.39039279  0.35995985     0.16000
C168        C  0.85551044  0.39236112  0.39391841     0.21800
C169        C  0.86006580  0.42667058  0.41368225    -0.34400
C170        C  0.85450499  0.45766907  0.39687118     0.15900
O171        O  0.83703067  0.48460293  0.35295943    -0.26500
C172        C  0.84091627  0.50683737  0.38064265     0.05700
C173        C  0.85210900  0.49185901  0.40881714    -0.31300
O174        O  0.85434438  0.35738488  0.40495993    -0.23200
C175        C  0.84476929  0.33292858  0.37766697    -0.03200
C176        C  0.84014516  0.35203216  0.34897081    -0.17600
H177        H  0.83313825  0.41837220  0.31687739     0.20400
H178        H  0.86519439  0.42787682  0.44055130     0.18800
H179        H  0.85518440  0.50276394  0.43457079     0.18700
H180        H  0.83033269  0.33840477  0.32412155     0.14600
C181        C  0.05835567  0.29711788  0.00489228     0.30000
C182        C  0.03641267  0.26654931  0.97994189    -0.36300
C183        C  0.99848842  0.26381511  0.46866114     0.16000
C184        C  0.98277730  0.28880001  0.48152709     0.21800
C185        C  0.00527492  0.32008167  0.00585638    -0.34400
C186        C  0.04362934  0.32341757  0.01665246     0.15900
O187        O  0.09336725  0.30380010  0.02020889    -0.26500
C188        C  0.10153942  0.33534031  0.04150425     0.05700
C189        C  0.07199730  0.34916569  0.04018644    -0.31300
O190        O  0.94559222  0.27930979  0.46862036    -0.23200
C191        C  0.93792095  0.24851846  0.44671508    -0.03200
C192        C  0.96977024  0.23769044  0.44549905    -0.17600
H193        H  0.04777861  0.24594977  0.97035819     0.20400
H194        H  0.99342641  0.34003343  0.51598024     0.18800
H195        H  0.07070066  0.37336218  0.05538887     0.18700
H196        H  0.97090235  0.21330763  0.43042908     0.14600
C197        C  0.03858471  0.31741648  0.22857178     0.30000
C198        C  0.01467549  0.32592452  0.25214632    -0.36300
C199        C  0.97889361  0.29018045  0.26586293     0.16000
C200        C  0.96799384  0.24893115  0.25750510     0.21800
C201        C  0.99130756  0.24047747  0.23339951    -0.34400
C202        C  0.02649650  0.27619053  0.21915611     0.15900
O203        O  0.07418237  0.34582121  0.21360724    -0.26500
C204        C  0.08438935  0.32249064  0.19379113     0.05700
C205        C  0.05573179  0.27901709  0.19601621    -0.31300
O206        O  0.93466709  0.22027266  0.27461440    -0.23200
C207        C  0.92352138  0.24341207  0.29370094    -0.03200
C208        C  0.94967166  0.28711101  0.28918200    -0.17600
H209        H  0.02362133  0.35810488  0.25955776     0.20400
H210        H  0.98285381  0.20827209  0.22648810     0.18800
H211        H  0.05731612  0.25323752  0.18349593     0.18700
H212        H  0.94801865  0.31273986  0.30190576     0.14600
C213        C  0.25921518  0.28817666  0.23143074     0.28800
C214        C  0.25349023  0.25048623  0.24601007    -0.36300
C215        C  0.28837666  0.25382312  0.26366620     0.16000
C216        C  0.32658238  0.29151465  0.26658170     0.21800
C217        C  0.33218797  0.32944178  0.25220225    -0.34400
C218        C  0.29700070  0.32621428  0.23477867     0.15900
O219        O  0.23098656  0.29193927  0.21324560    -0.26500
C220        C  0.25062137  0.33300621  0.20503202     0.05700
C221        C  0.29174293  0.35605036  0.21786682    -0.31300
O222        O  0.35490418  0.28702194  0.28429164    -0.23200
C223        C  0.33423799  0.24601568  0.29298495    -0.03200
C224        C  0.29279113  0.22391639  0.28086305    -0.17600
H225        H  0.22386865  0.22059608  0.24371377     0.20400
H226        H  0.36182004  0.35931594  0.25446506     0.18800
H227        H  0.31469932  0.38950896  0.21441692     0.18700
H228        H  0.26924849  0.19064867  0.28444282     0.14600
C229        C  0.27474067  0.31374455  0.00486372     0.30000
C230        C  0.27774915  0.30364871  0.47118949    -0.36300
C231        C  0.30041614  0.28208874  0.46539971     0.16000
C232        C  0.31945690  0.27188197  0.49094039     0.21800
C233        C  0.31627611  0.28179657  0.02462461    -0.34400
C234        C  0.29292689  0.30262827  0.03048465     0.15900
O235        O  0.25385328  0.33252887  0.01607370    -0.26500
C236        C  0.25821703  0.33294512  0.04932200     0.05700
C237        C  0.28212118  0.31466803  0.05977795    -0.31300
O238        O  0.33874781  0.25141240  0.47991583    -0.23200
C239        C  0.33161483  0.24801897  0.44693454    -0.03200
C240        C  0.30787008  0.26648585  0.43644522    -0.17600
H241        H  0.26278984  0.31136401  0.45100582     0.20400
H242        H  0.33032698  0.27313136  0.04490018     0.18800
H243        H  0.28994363  0.31049558  0.08521298     0.18700
H244        H  0.29754535  0.26802711  0.41124024     0.14600
C245        C  0.29654767  0.97289642  0.01293215     0.30000
C246        C  0.33396497  0.00357135  0.99661913    -0.36300
C247        C  0.33039311  0.03450821  0.47783498     0.16000
C248        C  0.29245952  0.03470171  0.47497779     0.21800
C249        C  0.25523259  0.00417012  0.49117455    -0.34400
C250        C  0.25897562  0.97382091  0.01029996     0.15900
O251        O  0.29252142  0.94155621  0.03245662    -0.26500
C252        C  0.25196777  0.92265724  0.04261221     0.05700
C253        C  0.22970864  0.94146171  0.02963531    -0.31300
O254        O  0.29622551  0.06673278  0.45681497    -0.23200
C255        C  0.33717885  0.08776678  0.44806678    -0.03200
C256        C  0.36012272  0.06919332  0.46031543    -0.17600
H257        H  0.36385032  0.00372533  0.99886276     0.20400
H258        H  0.22555169  0.00453053  0.48947079     0.18800
H259        H  0.19667173  0.93248718  0.03385029     0.18700
H260        H  0.39370505  0.07989430  0.45703830     0.14600
C261        C  0.31644893  0.04879765  0.25358326     0.30000
C262        C  0.30928853  0.03533761  0.21992835    -0.36300
C263        C  0.28735852  0.99113217  0.21476935     0.16000
C264        C  0.27402155  0.96217237  0.24091182     0.21800
C265        C  0.28084459  0.97563683  0.27457607    -0.34400
C266        C  0.30215067  0.01984009  0.27975081     0.15900
O267        O  0.33558509  0.08859211  0.26415761    -0.26500
C268        C  0.33306071  0.08509800  0.29751322     0.05700
C269        C  0.31242691  0.04307741  0.30868678    -0.31300
O270        O  0.25377692  0.92235734  0.23034538    -0.23200
C271        C  0.25369773  0.92585054  0.19703825    -0.03200
C272        C  0.27407044  0.96788381  0.18589260    -0.17600
H273        H  0.31956897  0.05775586  0.19924364     0.20400
H274        H  0.26975554  0.95320862  0.29527304     0.18800
H275        H  0.30593517  0.03145686  0.33433467     0.18700
H276        H  0.27808410  0.97951075  0.16030276     0.14600
C277        C  0.04242051  0.71823819  0.23076972     0.30000
C278        C  0.01266357  0.68073027  0.24756481    -0.36300
C279        C  0.98014709  0.68293450  0.26555922     0.16000
C280        C  0.97754183  0.71967794  0.26710306     0.21800
C281        C  0.00696397  0.75689156  0.25019646    -0.34400
C282        C  0.03906537  0.75456451  0.23205332     0.15900
O283        O  0.07537640  0.72358838  0.21238270    -0.26500
C284        C  0.09301671  0.76377499  0.20162862     0.05700
C285        C  0.07165211  0.78444402  0.21308476    -0.31300
O286        O  0.94529101  0.71520863  0.28569374    -0.23200
C287        C  0.92647576  0.67495171  0.29614078    -0.03200
C288        C  0.94667099  0.65314494  0.28431173    -0.17600
H289        H  0.01468629  0.65189531  0.24663557     0.20400
H290        H  0.00493844  0.78572941  0.25112308     0.18800
H291        H  0.07915924  0.81687667  0.20817939     0.18700
H292        H  0.93825576  0.62044837  0.28918165     0.14600
C293        C  0.02714981  0.73477304  0.03111085     0.30000
C294        C  0.98247159  0.71162094  0.02931324    -0.36300
C295        C  0.96525333  0.70172373  0.49681920     0.16000
C296        C  0.99020212  0.71433311  0.46807341     0.21800
C297        C  0.03480894  0.73699674  0.46988405    -0.34400
C298        C  0.05201268  0.74631445  0.00233336     0.15900
O299        O  0.05014566  0.74773223  0.05880164    -0.26500
C300        C  0.09018753  0.76725623  0.04750933     0.05700
C301        C  0.09324002  0.76725421  0.01263141    -0.31300
O302        O  0.96741337  0.70298276  0.44030214    -0.23200
C303        C  0.92735579  0.68233742  0.45140598    -0.03200
C304        C  0.92404081  0.68034305  0.48633010    -0.17600
H305        H  0.96255337  0.70207834  0.05164042     0.20400
H306        H  0.05471758  0.74679151  0.44755110     0.18800
H307        H  0.12175485  0.78116664  0.99715042     0.18700
H308        H  0.89540551  0.66614599  0.50167501     0.14600
C309        C  0.17051103  0.55243438  0.10612532     0.30000
C310        C  0.17070808  0.58363287  0.08503008    -0.36300
C311        C  0.17001061  0.61776564  0.10126058     0.16000
C312        C  0.16947647  0.62095515  0.13585797     0.21800
C313        C  0.16792797  0.58913934  0.15687242    -0.34400
C314        C  0.16832366  0.55492678  0.14067614     0.15900
O315        O  0.17626156  0.52075080  0.09656440    -0.26500
C316        C  0.17701679  0.50232290  0.12530680     0.05700
C317        C  0.17174749  0.52191860  0.15357454    -0.31300
O318        O  0.17438994  0.65783174  0.14583392    -0.23200
C319        C  0.17743046  0.67838922  0.11735008    -0.03200
C320        C  0.17447479  0.65487887  0.08871993    -0.17600
H321        H  0.17356840  0.58255524  0.05797652     0.20400
H322        H  0.16870637  0.59202372  0.18399982     0.18800
H323        H  0.17379262  0.51503618  0.17976591     0.18700
H324        H  0.17848858  0.66500548  0.06270609     0.14600
C325        C  0.72393317  0.96456296  0.24332243     0.30000
C326        C  0.75449721  0.98664793  0.26809757    -0.36300
C327        C  0.75516139  0.02290288  0.28117219     0.16000
C328        C  0.72837626  0.03720000  0.27005783     0.21800
C329        C  0.69714335  0.01456714  0.24569648    -0.34400
C330        C  0.69579962  0.97763025  0.23315330     0.15900
O331        O  0.71816661  0.93014989  0.22746406    -0.26500
C332        C  0.68537321  0.92049032  0.20736830     0.05700
C333        C  0.66987993  0.94868829  0.20989245    -0.31300
O334        O  0.73621415  0.07317464  0.28463066    -0.23200
C335        C  0.76770412  0.08125804  0.30581714    -0.03200
C336        C  0.78059252  0.05098692  0.30490559    -0.17600
H337        H  0.77632442  0.97634381  0.27651481     0.20400
H338        H  0.67558131  0.02508823  0.23705109     0.18800
H339        H  0.64396737  0.94831869  0.19612537     0.18700
H340        H  0.80600612  0.05062378  0.31888493     0.14600
C341        C  0.73178598  0.03605676  0.48281001     0.30000
C342        C  0.69592535  0.99643756  0.49031997    -0.36300
C343        C  0.70052771  0.97352926  0.01684539     0.16000
C344        C  0.73756695  0.98879576  0.03522086     0.21800
C345        C  0.77365906  0.02816416  0.02740367    -0.34400
C346        C  0.76931067  0.05072458  0.50044913     0.15900
O347        O  0.73484178  0.06237314  0.45857121    -0.26500
C348        C  0.77504729  0.09395555  0.46042016     0.05700
C349        C  0.79804167  0.08832055  0.48582634    -0.31300
O350        O  0.73458602  0.96213343  0.05915215    -0.23200
C351        C  0.69528827  0.92913396  0.05572007    -0.03200
C352        C  0.67278592  0.93441344  0.02970007    -0.17600
H353        H  0.66662194  0.98409726  0.47621341     0.20400
H354        H  0.80321662  0.04013690  0.04110639     0.18800
H355        H  0.83117751  0.10889610  0.49237069     0.18700
H356        H  0.64058133  0.91258726  0.02155846     0.14600
C357        C  0.69301557  0.71962451  0.01839635     0.30000
C358        C  0.68504101  0.68273398  0.50065013    -0.36300
C359        C  0.71979175  0.68521201  0.48267668     0.16000
C360        C  0.75938720  0.72162991  0.48199805     0.21800
C361        C  0.76743198  0.75820246  0.99991838    -0.34400
C362        C  0.73295603  0.75556909  0.01808224     0.15900
O363        O  0.66534181  0.72474350  0.03680103    -0.26500
C364        C  0.68815144  0.76433871  0.04853729     0.05700
C365        C  0.73039425  0.78487074  0.03780363    -0.31300
O366        O  0.78723283  0.71730655  0.46345279    -0.23200
C367        C  0.76548958  0.67747719  0.45228018    -0.03200
C368        C  0.72331927  0.65581324  0.46343403    -0.17600
H369        H  0.65402693  0.65416131  0.50088402     0.20400
H370        H  0.79848832  0.78673563  0.99975993     0.18800
H371        H  0.75546941  0.81692742  0.04350427     0.18700
H372        H  0.69895787  0.62334640  0.45805461     0.14600
C373        C  0.73357075  0.70785038  0.28337990     0.30000
C374        C  0.71112992  0.73014968  0.28171526    -0.36300
C375        C  0.70200171  0.73844525  0.24927900     0.16000
C376        C  0.71450380  0.72610133  0.22047101     0.21800
C377        C  0.73609850  0.70300781  0.22215952    -0.34400
C378        C  0.74483945  0.69434217  0.25456288     0.15900
O379        O  0.74720239  0.69836417  0.31095622    -0.26500
C380        C  0.76690493  0.67803190  0.29958752     0.05700
C381        C  0.76619417  0.67434291  0.26475699    -0.31300
O382        O  0.70500988  0.73954173  0.19279616    -0.23200
C383        C  0.68566476  0.76025627  0.20402480    -0.03200
C384        C  0.68259296  0.76035233  0.23892942    -0.17600
H385        H  0.70219637  0.74102376  0.30408995     0.20400
H386        H  0.74616684  0.69325167  0.19977494     0.18800
H387        H  0.78056770  0.66022056  0.24922184     0.18700
H388        H  0.66939869  0.77569910  0.25437856     0.14600
C389        C  0.39406950  0.83997762  0.14068185     0.30000
C390        C  0.42623996  0.84016420  0.16036797    -0.36300
C391        C  0.45990850  0.84006019  0.14266924     0.16000
C392        C  0.46227844  0.84043249  0.10797660     0.21800
C393        C  0.43017197  0.84039084  0.08829745    -0.34400
C394        C  0.39617215  0.83983589  0.10598883     0.15900
O395        O  0.35797313  0.83643484  0.15191286    -0.26500
C396        C  0.33657163  0.83368747  0.12402558     0.05700
C397        C  0.35884837  0.83570917  0.09475578    -0.31300
O398        O  0.49514272  0.83740281  0.09672918    -0.23200
C399        C  0.51390523  0.83482001  0.12461253    -0.03200
C400        C  0.49333080  0.83631214  0.15388243    -0.17600
H401        H  0.42425788  0.83865345  0.18755102     0.20400
H402        H  0.43074027  0.83904658  0.06111137     0.18800
H403        H  0.34818511  0.83257589  0.06898127     0.18700
H404        H  0.50083723  0.83308365  0.17964925     0.14600
C405        C  0.46168900  0.62360188  0.14596111     0.30000
C406        C  0.42724053  0.59300797  0.16499919    -0.36300
C407        C  0.39479768  0.55921174  0.14684922     0.16000
C408        C  0.39635791  0.55528850  0.11238097     0.21800
C409        C  0.43086542  0.58582493  0.09334701    -0.34400
C410        C  0.46296567  0.62000704  0.11143383     0.15900
O411        O  0.49350603  0.65971119  0.15738347    -0.26500
C412        C  0.51522110  0.67964040  0.12978191     0.05700
C413        C  0.49771735  0.65642223  0.10048972    -0.31300
O414        O  0.36126587  0.52268398  0.10035735    -0.23200
C415        C  0.33681118  0.50569631  0.12746109    -0.03200
C416        C  0.35607638  0.52708849  0.15706534    -0.17600
H417        H  0.42497968  0.59632386  0.19188605     0.20400
H418        H  0.43170696  0.58406279  0.06619628     0.18800
H419        H  0.50787859  0.66603886  0.07476014     0.18700
H420        H  0.34269961  0.52092950  0.18223406     0.14600
O421        O  0.69376521  0.89251293  0.60547142    -0.85100
O422        O  0.69338134  0.87221326  0.67263298    -0.82100
C423        C  0.66834741  0.88366923  0.68488527     0.98400
O424        O  0.62897786  0.86248878  0.67911183    -0.82200
O425        O  0.55298142  0.80656191  0.64974957    -0.84800
C426        C  0.54892311  0.82517920  0.62447849     1.02900
O427        O  0.57310290  0.83358605  0.59921231    -0.77600
O428        O  0.64812351  0.85568814  0.56543382    -0.77800
C429        C  0.67803935  0.89059391  0.57680981     1.02800
O430        O  0.69594339  0.81830822  0.58589966    -0.85100
O431        O  0.68611334  0.79246562  0.65226894    -0.82200
C432        C  0.67100383  0.78241679  0.68161228     0.98400
O433        O  0.64457116  0.79292942  0.69242667    -0.82200
O434        O  0.57205134  0.73978732  0.65609876    -0.84800
C435        C  0.54981775  0.72421850  0.63000871     1.02900
O436        O  0.55509395  0.74697879  0.60431820    -0.77600
O437        O  0.63100008  0.76857732  0.57406316    -0.77800
C438        C  0.67064752  0.78441439  0.57076457     1.02800
Cr439      Cr  0.68774341  0.84167605  0.62904685     1.93700
Cr440      Cr  0.60211089  0.80163347  0.66630415     1.93200
Cr441      Cr  0.60414635  0.80234438  0.58878024     1.39100
O442        O  0.63110846  0.81524677  0.62784335    -1.22900
O443        O  0.22092989  0.89257852  0.64587682    -0.85100
O444        O  0.19723537  0.87552398  0.57936348    -0.82100
C445        C  0.23250966  0.88570468  0.56536606     0.98400
O446        O  0.24987473  0.86344367  0.56992926    -0.82200
O447        O  0.26936125  0.80652776  0.59862400    -0.84800
C448        C  0.29189232  0.82389095  0.62429707     1.02900
O449        O  0.27606082  0.83101285  0.65021138    -0.77600
O450        O  0.22331595  0.85217852  0.68602211    -0.77800
C451        C  0.23215239  0.88851919  0.67497183     1.02800
O452        O  0.14178759  0.81981853  0.66627232    -0.85100
O453        O  0.12353831  0.79738377  0.59933191    -0.82200
C454        C  0.12739700  0.78714479  0.56970958     0.98400
O455        O  0.16352782  0.79536290  0.55830877    -0.82200
O456        O  0.18269573  0.74026864  0.59196188    -0.84800
C457        C  0.18920872  0.72350325  0.61739081     1.02900
O458        O  0.20742637  0.74530942  0.64322057    -0.77600
O459        O  0.15303774  0.76656350  0.67442870    -0.77800
C460        C  0.13095467  0.78409219  0.67951625     1.02800
Cr461      Cr  0.17303985  0.84408739  0.62270579     1.93700
Cr462      Cr  0.21519894  0.80243819  0.58278123     1.93200
Cr463      Cr  0.21393244  0.80003443  0.66048352     1.39100
O464        O  0.20082752  0.81531343  0.62200280    -1.22900
O465        O  0.12367586  0.32578034  0.64498409    -0.85100
O466        O  0.14744743  0.32677655  0.57842219    -0.82100
C467        C  0.13715739  0.35201523  0.56505459     0.98400
O468        O  0.15795693  0.39133246  0.57116714    -0.82200
O469        O  0.21064516  0.46681659  0.60244297    -0.84800
C470        C  0.18899283  0.46912917  0.62649008     1.02900
O471        O  0.17948811  0.44476809  0.65158256    -0.77600
O472        O  0.15767779  0.37111792  0.68595093    -0.77800
C473        C  0.12376395  0.34098592  0.67362560     1.02800
O474        O  0.19756193  0.32465576  0.66703743    -0.85100
O475        O  0.22631280  0.33427624  0.60126105    -0.82200
C476        C  0.23740241  0.34922207  0.57198382     0.98400
O477        O  0.22839061  0.37653520  0.56101715    -0.82200
O478        O  0.27878437  0.44859461  0.59930472    -0.84800
C479        C  0.29222256  0.47110612  0.62554578     1.02900
O480        O  0.26734628  0.46582174  0.64991497    -0.77600
O481        O  0.24562576  0.38995121  0.68017607    -0.77800
C482        C  0.23055058  0.35035006  0.68296482     1.02800
Cr483      Cr  0.17588786  0.33243705  0.62302310     1.93700
Cr484      Cr  0.21771620  0.41841686  0.58651804     1.93200
Cr485      Cr  0.21169660  0.41567171  0.66385932     1.39100
O486        O  0.20172350  0.38897155  0.62463208    -1.22900
O487        O  0.89519142  0.67860343  0.89901779    -0.85100
O488        O  0.87848673  0.68268658  0.83175952    -0.82100
C489        C  0.88866920  0.65727513  0.81837174     0.98400
O490        O  0.86602946  0.61770654  0.82328882    -0.82200
O491        O  0.81001813  0.54296784  0.85515151    -0.84800
C492        C  0.82910837  0.54011310  0.88069669     1.02900
O493        O  0.83634050  0.56407129  0.90584438    -0.77600
O494        O  0.85415581  0.63774455  0.93987267    -0.77800
C495        C  0.89059773  0.66498596  0.92879584     1.02800
O496        O  0.82139831  0.68431744  0.91752293    -0.85100
O497        O  0.79960588  0.67818472  0.85077124    -0.82200
C498        C  0.78852091  0.66256650  0.82174936     0.98400
O499        O  0.79718207  0.63473300  0.81104537    -0.82200
O500        O  0.74288000  0.56260067  0.84735751    -0.84800
C501        C  0.72674765  0.53991036  0.87324277     1.02900
O502        O  0.74957611  0.54353382  0.89832838    -0.77600
O503        O  0.76838196  0.61983025  0.92648364    -0.77800
C504        C  0.78556589  0.65946526  0.93071541     1.02800
Cr505      Cr  0.84659204  0.67669948  0.87478163     1.93700
Cr506      Cr  0.80503857  0.59167637  0.83712867     1.93200
Cr507      Cr  0.80332688  0.59340597  0.91462289     1.39100
O508        O  0.81833473  0.62038727  0.87546398    -1.22900
O509        O  0.82798709  0.13823897  0.92131623    -0.85100
O510        O  0.80178545  0.11732860  0.85539791    -0.82100
C511        C  0.78832743  0.11952878  0.82675211     0.98400
O512        O  0.79438112  0.15469255  0.81514261    -0.82200
O513        O  0.74452009  0.17742274  0.85220033    -0.84800
C514        C  0.73097519  0.18798098  0.87764418     1.02900
O515        O  0.75553582  0.20756534  0.90190486    -0.77600
O516        O  0.77677278  0.15228082  0.93207148    -0.77800
C517        C  0.79383352  0.12967992  0.93653822     1.02800
O518        O  0.90047692  0.21426939  0.89761569    -0.85100
O519        O  0.87841813  0.18922917  0.83167542    -0.82200
C520        C  0.88752970  0.22395623  0.81743008     0.98400
O521        O  0.86524721  0.24119747  0.82274478    -0.82200
O522        O  0.81267286  0.26395131  0.85462474    -0.84800
C523        C  0.83370054  0.28802961  0.87871370     1.02900
O524        O  0.84306057  0.27343617  0.90397846    -0.77600
O525        O  0.86415090  0.22152660  0.93914893    -0.77800
C526        C  0.89901743  0.22749962  0.92663737     1.02800
Cr527      Cr  0.84988277  0.16707028  0.87656689     1.93700
Cr528      Cr  0.80556404  0.20826600  0.83910226     1.93200
Cr529      Cr  0.81071022  0.21224403  0.91629503     1.39100
O530        O  0.82193395  0.19588061  0.87732297    -1.22900
O531        O  0.33419296  0.11895095  0.84879332    -0.85100
O532        O  0.32929426  0.13721649  0.91524967    -0.82100
C533        C  0.35477913  0.12673931  0.92772753     0.98400
O534        O  0.39441321  0.15010777  0.92350683    -0.82200
O535        O  0.47027127  0.20871918  0.89423634    -0.84800
C536        C  0.47540976  0.18997877  0.86938601     1.02900
O537        O  0.45164145  0.18053955  0.84392176    -0.77600
O538        O  0.37755348  0.15845583  0.80833080    -0.77800
C539        C  0.34944048  0.12250402  0.81958243     1.02800
O540        O  0.32784417  0.19126179  0.82863908    -0.85100
O541        O  0.33286219  0.21529784  0.89532402    -0.82200
C542        C  0.34731193  0.22621567  0.92471088     0.98400
O543        O  0.37451414  0.21719172  0.93596198    -0.82200
O544        O  0.44716301  0.27271779  0.90047359    -0.84800
C545        C  0.47045101  0.28907755  0.87483661     1.02900
O546        O  0.46776299  0.26663137  0.84949802    -0.77600
O547        O  0.39222222  0.24393081  0.81864480    -0.77800
C548        C  0.35253289  0.22639934  0.81458312     1.02800
Cr549      Cr  0.33538328  0.16797781  0.87200826     1.93700
Cr550      Cr  0.41933790  0.21097226  0.91058352     1.93200
Cr551      Cr  0.42007636  0.21115492  0.83304209     1.39100
O552        O  0.39182763  0.19683323  0.87177376    -1.22900
C553        C  0.62726206  0.16811275  0.86188105     0.30000
C554        C  0.59165098  0.15940599  0.84214569    -0.36300
C555        C  0.56135849  0.16782651  0.85723850     0.16000
C556        C  0.56589513  0.18348589  0.88956171     0.21800
C557        C  0.60107079  0.19166434  0.90937313    -0.34400
C558        C  0.63131105  0.18349593  0.89425768     0.15900
O559        O  0.66108882  0.16595048  0.85200545    -0.26500
C560        C  0.68694871  0.18007603  0.87846728     0.05700
C561        C  0.66993362  0.19124749  0.90548325    -0.31300
O562        O  0.53565597  0.19190553  0.89798355    -0.23200
C563        C  0.51112622  0.18149158  0.87084449    -0.03200
C564        C  0.52539385  0.16607963  0.84463668    -0.17600
H565        H  0.58858932  0.14839134  0.81643518     0.20400
H566        H  0.60535087  0.20500979  0.93439587     0.18800
H567        H  0.68482088  0.20513179  0.92929018     0.18700
H568        H  0.51233585  0.15683667  0.81960957     0.14600
C569        C  0.62156600  0.45931355  0.85857071     0.30000
C570        C  0.58776586  0.42885141  0.83918434    -0.36300
C571        C  0.55491400  0.39474916  0.85700389     0.16000
C572        C  0.55471900  0.39128915  0.89161394     0.21800
C573        C  0.58816867  0.42206521  0.91103206    -0.34400
C574        C  0.62145278  0.45562210  0.89315217     0.15900
O575        O  0.65788063  0.49084066  0.84686091    -0.26500
C576        C  0.68135232  0.50726936  0.87430707     0.05700
C577        C  0.66019893  0.48678066  0.90378679    -0.31300
O578        O  0.52327641  0.35465033  0.90272701    -0.23200
C579        C  0.50331890  0.33425730  0.87486574    -0.03200
C580        C  0.52146337  0.35772114  0.84570710    -0.17600
H581        H  0.58836765  0.43017797  0.81197759     0.20400
H582        H  0.58947740  0.41864224  0.93796775     0.18800
H583        H  0.67257273  0.49244914  0.92915107     0.18700
H584        H  0.51294988  0.34770994  0.81986358     0.14600
C585        C  0.84544746  0.45503251  0.86295800     0.30000
C586        C  0.84181085  0.42140836  0.84316387    -0.36300
C587        C  0.84691412  0.39039251  0.85995946     0.16000
C588        C  0.85551013  0.39236092  0.89391799     0.21800
C589        C  0.86006549  0.42667034  0.91368183    -0.34400
C590        C  0.85450451  0.45766875  0.89687081     0.15900
O591        O  0.83703000  0.48460262  0.85295917    -0.26500
C592        C  0.84091585  0.50683716  0.88064240     0.05700
C593        C  0.85210866  0.49185875  0.90881683    -0.31300
O594        O  0.85434437  0.35738482  0.90495948    -0.23200
C595        C  0.84476925  0.33292848  0.87766655    -0.03200
C596        C  0.84014486  0.35203196  0.84897044    -0.17600
H597        H  0.83313713  0.41837177  0.81687710     0.20400
H598        H  0.86519429  0.42787659  0.94055087     0.18800
H599        H  0.85518434  0.50276371  0.93457044     0.18700
H600        H  0.83033229  0.33840453  0.82412118     0.14600
C601        C  0.05835587  0.29711845  0.50489240     0.30000
C602        C  0.03641331  0.26655048  0.47994148    -0.36300
C603        C  0.99848807  0.26381424  0.96866118     0.16000
C604        C  0.98277760  0.28880006  0.98152638     0.21800
C605        C  0.00527417  0.32008098  0.50585763    -0.34400
C606        C  0.04362883  0.32341720  0.51665340     0.15900
O607        O  0.09336777  0.30380098  0.52020866    -0.26500
C608        C  0.10153935  0.33534042  0.54150468     0.05700
C609        C  0.07199657  0.34916500  0.54018763    -0.31300
O610        O  0.94559267  0.27931008  0.96861948    -0.23200
C611        C  0.93792087  0.24851801  0.94671479    -0.03200
C612        C  0.96976957  0.23768915  0.94549945    -0.17600
H613        H  0.04777978  0.24595180  0.47035713     0.20400
H614        H  0.99342763  0.34003477  0.01597835     0.18800
H615        H  0.07069949  0.37336087  0.55539061     0.18700
H616        H  0.97090112  0.21330555  0.93043006     0.14600
C617        C  0.03858450  0.31741589  0.72857150     0.30000
C618        C  0.01467506  0.32592390  0.75214589    -0.36300
C619        C  0.97889324  0.29017976  0.76586252     0.16000
C620        C  0.96799387  0.24893049  0.75750504     0.21800
C621        C  0.99130777  0.24047683  0.73339956    -0.34400
C622        C  0.02649657  0.27618996  0.71915604     0.15900
O623        O  0.07418215  0.34582068  0.71360698    -0.26500
C624        C  0.08438943  0.32249015  0.69379111     0.05700
C625        C  0.05573204  0.27901655  0.69601628    -0.31300
O626        O  0.93466733  0.22027199  0.77461454    -0.23200
C627        C  0.92352126  0.24341138  0.79370075    -0.03200
C628        C  0.94967117  0.28711034  0.78918149    -0.17600
H629        H  0.02362066  0.35810417  0.75955722     0.20400
H630        H  0.98285434  0.20827155  0.72648834     0.18800
H631        H  0.05731662  0.25323701  0.68349621     0.18700
H632        H  0.94801791  0.31273910  0.80190500     0.14600
C633        C  0.25921568  0.28817620  0.73142996     0.28800
C634        C  0.25349062  0.25048567  0.74600926    -0.36300
C635        C  0.28837697  0.25382274  0.76366569     0.16000
C636        C  0.32658260  0.29151432  0.76658135     0.21800
C637        C  0.33218830  0.32944141  0.75220179    -0.34400
C638        C  0.29700109  0.32621383  0.73477810     0.15900
O639        O  0.23098711  0.29193886  0.71324480    -0.26500
C640        C  0.25062185  0.33300590  0.70503156     0.05700
C641        C  0.29174335  0.35605004  0.71786647    -0.31300
O642        O  0.35490429  0.28702179  0.78429155    -0.23200
C643        C  0.33423817  0.24601552  0.79298481    -0.03200
C644        C  0.29279140  0.22391612  0.78086272    -0.17600
H645        H  0.22386925  0.22059562  0.74371285     0.20400
H646        H  0.36182025  0.35931552  0.75446473     0.18800
H647        H  0.31469962  0.38950867  0.71441693     0.18700
H648        H  0.26924874  0.19064834  0.78444249     0.14600
C649        C  0.27474039  0.31374467  0.50486345     0.30000
C650        C  0.27774990  0.30364912  0.97118971    -0.36300
C651        C  0.30041666  0.28208893  0.96539998     0.16000
C652        C  0.31945674  0.27188146  0.99094072     0.21800
C653        C  0.31627682  0.28179772  0.52462421    -0.34400
C654        C  0.29292735  0.30262915  0.53048431     0.15900
O655        O  0.25385262  0.33252858  0.51607351    -0.26500
C656        C  0.25821696  0.33294539  0.54932177     0.05700
C657        C  0.28212178  0.31466901  0.55977763    -0.31300
O658        O  0.33874747  0.25141173  0.97991614    -0.23200
C659        C  0.33161500  0.24801889  0.94693479    -0.03200
C660        C  0.30787082  0.26648637  0.93644542    -0.17600
H661        H  0.26279118  0.31136503  0.95100597     0.20400
H662        H  0.33032823  0.27313308  0.54489978     0.18800
H663        H  0.28994474  0.31049706  0.58521266     0.18700
H664        H  0.29754660  0.26802825  0.91124043     0.14600
C665        C  0.29654689  0.97289535  0.51293103     0.30000
C666        C  0.33396413  0.00357019  0.49661788    -0.36300
C667        C  0.33039389  0.03450909  0.97783589     0.16000
C668        C  0.29246018  0.03470229  0.97497832     0.21800
C669        C  0.25523320  0.00417066  0.99117499    -0.34400
C670        C  0.25897497  0.97382015  0.51029924     0.15900
O671        O  0.29252066  0.94155506  0.53245538    -0.26500
C672        C  0.25196721  0.92265647  0.54261140     0.05700
C673        C  0.22970811  0.94146113  0.52963477    -0.31300
O674        O  0.29622613  0.06673311  0.95681519    -0.23200
C675        C  0.33717956  0.08776726  0.94806719    -0.03200
C676        C  0.36012345  0.06919407  0.96031624    -0.17600
H677        H  0.36384939  0.00372396  0.49886127     0.20400
H678        H  0.22555218  0.00453082  0.98947090     0.18800
H679        H  0.19667136  0.93248696  0.53385011     0.18700
H680        H  0.39370598  0.07989525  0.95703929     0.14600
C681        C  0.31644866  0.04879814  0.75358307     0.30000
C682        C  0.30928785  0.03533821  0.71992812    -0.36300
C683        C  0.28735799  0.99113275  0.71476910     0.16000
C684        C  0.27402163  0.96217291  0.74091152     0.21800
C685        C  0.28084509  0.97563729  0.77457576    -0.34400
C686        C  0.30215099  0.01984051  0.77975056     0.15900
O687        O  0.33558486  0.08859256  0.76415752    -0.26500
C688        C  0.33306108  0.08509831  0.79751314     0.05700
C689        C  0.31242762  0.04307767  0.80868660    -0.31300
O690        O  0.25377723  0.92235789  0.73034505    -0.23200
C691        C  0.25369758  0.92585111  0.69703793    -0.03200
C692        C  0.27406971  0.96788439  0.68589240    -0.17600
H693        H  0.31956788  0.05775643  0.69924347     0.20400
H694        H  0.26975658  0.95320908  0.79527270     0.18800
H695        H  0.30593630  0.03145698  0.83433446     0.18700
H696        H  0.27808304  0.97951141  0.66030250     0.14600
C697        C  0.04242098  0.71823894  0.73076992     0.30000
C698        C  0.01266382  0.68073086  0.74756476    -0.36300
C699        C  0.98014735  0.68293512  0.76555920     0.16000
C700        C  0.97754244  0.71967871  0.76710341     0.21800
C701        C  0.00696482  0.75689249  0.75019709    -0.34400
C702        C  0.03906614  0.75456541  0.73205385     0.15900
O703        O  0.07537675  0.72358907  0.71238277    -0.26500
C704        C  0.09301735  0.76377583  0.70162901     0.05700
C705        C  0.07165301  0.78444501  0.71308542    -0.31300
O706        O  0.94529170  0.71520946  0.78569418    -0.23200
C707        C  0.92647610  0.67495240  0.79614082    -0.03200
C708        C  0.94667107  0.65314543  0.78431155    -0.17600
H709        H  0.01468636  0.65189590  0.74663529     0.20400
H710        H  0.00493952  0.78573045  0.75112395     0.18800
H711        H  0.07916027  0.81687773  0.70818024     0.18700
H712        H  0.93825559  0.62044888  0.78918125     0.14600
C713        C  0.02714920  0.73477255  0.53111100     0.30000
C714        C  0.98247103  0.71162040  0.52931335    -0.36300
C715        C  0.96525396  0.70172440  0.99681905     0.16000
C716        C  0.99020275  0.71433398  0.96807327     0.21800
C717        C  0.03480954  0.73699765  0.96988394    -0.34400
C718        C  0.05201207  0.74631385  0.50233350     0.15900
O719        O  0.05014507  0.74773185  0.55880178    -0.26500
C720        C  0.09018694  0.76725591  0.54750945     0.05700
C721        C  0.09323941  0.76725380  0.51263154    -0.31300
O722        O  0.96741399  0.70298372  0.94030201    -0.23200
C723        C  0.92735643  0.68233821  0.95140584    -0.03200
C724        C  0.92404144  0.68034365  0.98632998    -0.17600
H725        H  0.96255273  0.70207778  0.55164064     0.20400
H726        H  0.05471829  0.74679264  0.94755095     0.18800
H727        H  0.12175423  0.78116619  0.49715056     0.18700
H728        H  0.89540622  0.66614643  0.00167486     0.14600
C729        C  0.17051118  0.55243447  0.60612616     0.30000
C730        C  0.17070809  0.58363285  0.58503093    -0.36300
C731        C  0.17001065  0.61776564  0.60126136     0.16000
C732        C  0.16947687  0.62095538  0.63585875     0.21800
C733        C  0.16792850  0.58913967  0.65687324    -0.34400
C734        C  0.16832411  0.55492705  0.64067698     0.15900
O735        O  0.17626138  0.52075071  0.59656522    -0.26500
C736        C  0.17701681  0.50232291  0.62530761     0.05700
C737        C  0.17174794  0.52191887  0.65357538    -0.31300
O738        O  0.17439039  0.65783203  0.64583459    -0.23200
C739        C  0.17743044  0.67838922  0.61735068    -0.03200
C740        C  0.17447446  0.65487863  0.58872064    -0.17600
H741        H  0.17356818  0.58255507  0.55797727     0.20400
H742        H  0.16870698  0.59202413  0.68400063     0.18800
H743        H  0.17379330  0.51503657  0.67976672     0.18700
H744        H  0.17848783  0.66500499  0.56270667     0.14600
C745        C  0.72393174  0.96456174  0.74332333     0.30000
C746        C  0.75449474  0.98664586  0.76809936    -0.36300
C747        C  0.75515978  0.02290159  0.78117314     0.16000
C748        C  0.72837653  0.03720022  0.77005721     0.21800
C749        C  0.69714458  0.01456821  0.74569497    -0.34400
C750        C  0.69579999  0.97763059  0.73315258     0.15900
O751        O  0.71816468  0.93014819  0.72746546    -0.26500
C752        C  0.68537275  0.92048995  0.70736834     0.05700
C753        C  0.66988098  0.94868924  0.70989117    -0.31300
O754        O  0.73621527  0.07317550  0.78462936    -0.23200
C755        C  0.76770375  0.08125768  0.80581707    -0.03200
C756        C  0.78059042  0.05098523  0.80490690    -0.17600
H757        H  0.77632058  0.97634064  0.77651783     0.20400
H758        H  0.67558402  0.02509041  0.73704829     0.18800
H759        H  0.64396975  0.94832084  0.69612280     0.18700
H760        H  0.80600281  0.05062100  0.81888738     0.14600
C761        C  0.73178584  0.03605730  0.98281069     0.30000
C762        C  0.69592515  0.99643831  0.99032087    -0.36300
C763        C  0.70052793  0.97352850  0.51684453     0.16000
C764        C  0.73756710  0.98879504  0.53522010     0.21800
C765        C  0.77365915  0.02816350  0.52740296    -0.34400
C766        C  0.76931059  0.05072514  0.00044974     0.15900
O767        O  0.73484169  0.06237343  0.95857168    -0.26500
C768        C  0.77504725  0.09395572  0.96042043     0.05700
C769        C  0.79804166  0.08832091  0.98582672    -0.31300
O770        O  0.73458605  0.96213282  0.55915154    -0.23200
C771        C  0.69528829  0.92913335  0.55571945    -0.03200
C772        C  0.67278612  0.93441276  0.52969928    -0.17600
H773        H  0.66662157  0.98409801  0.97621431     0.20400
H774        H  0.80321672  0.04013635  0.54110579     0.18800
H775        H  0.83117754  0.10889644  0.99237098     0.18700
H776        H  0.64058147  0.91258653  0.52155767     0.14600
C777        C  0.69301533  0.71962395  0.51839653     0.30000
C778        C  0.68504127  0.68273466  0.00064975    -0.36300
C779        C  0.71979209  0.68521276  0.98267637     0.16000
C780        C  0.75938753  0.72163065  0.98199784     0.21800
C781        C  0.76743169  0.75820180  0.49991850    -0.34400
C782        C  0.73295577  0.75556856  0.51808230     0.15900
O783        O  0.66534161  0.72474304  0.53680118    -0.26500
C784        C  0.68815130  0.76433829  0.54853736     0.05700
C785        C  0.73039404  0.78487029  0.53780362    -0.31300
O786        O  0.78723328  0.71730732  0.96345271    -0.23200
C787        C  0.76549009  0.67747798  0.95228010    -0.03200
C788        C  0.72331970  0.65581400  0.96343379    -0.17600
H789        H  0.65402721  0.65416202  0.00088352     0.20400
H790        H  0.79848806  0.78673500  0.49976000     0.18800
H791        H  0.75546922  0.81692701  0.54350419     0.18700
H792        H  0.69895839  0.62334719  0.95805435     0.14600
C793        C  0.73357126  0.70785137  0.78338013     0.30000
C794        C  0.71113059  0.73015085  0.78171550    -0.36300
C795        C  0.70200220  0.73844620  0.74927921     0.16000
C796        C  0.71450396  0.72610193  0.72047125     0.21800
C797        C  0.73609854  0.70300830  0.72215975    -0.34400
C798        C  0.74483962  0.69434281  0.75456313     0.15900
O799        O  0.74720309  0.69836534  0.81095644    -0.26500
C800        C  0.76690537  0.67803278  0.79958775     0.05700
C801        C  0.76619428  0.67434349  0.76475723    -0.31300
O802        O  0.70500977  0.73954197  0.69279635    -0.23200
C803        C  0.68566476  0.76025664  0.70402491    -0.03200
C804        C  0.68259338  0.76035321  0.73892957    -0.17600
H805        H  0.70219731  0.74102514  0.80409012     0.20400
H806        H  0.74616661  0.69325196  0.69977517     0.18800
H807        H  0.78056753  0.66022090  0.74922206     0.18700
H808        H  0.66939929  0.77570017  0.75437868     0.14600
C809        C  0.39406915  0.83997700  0.64068124     0.30000
C810        C  0.42623970  0.84016380  0.66036738    -0.36300
C811        C  0.45990811  0.84005957  0.64266864     0.16000
C812        C  0.46227784  0.84043141  0.60797601     0.21800
C813        C  0.43017119  0.84038938  0.58829680    -0.34400
C814        C  0.39617156  0.83983480  0.60598823     0.15900
O815        O  0.35797292  0.83643451  0.65191228    -0.26500
C816        C  0.33657130  0.83368690  0.62402502     0.05700
C817        C  0.35884780  0.83570811  0.59475521    -0.31300
O818        O  0.49514220  0.83740184  0.59672865    -0.23200
C819        C  0.51390491  0.83481952  0.62461205    -0.03200
C820        C  0.49333058  0.83631186  0.65388193    -0.17600
H821        H  0.42425786  0.83865347  0.68755042     0.20400
H822        H  0.43073924  0.83904471  0.56111084     0.18800
H823        H  0.34818442  0.83257454  0.56898068     0.18700
H824        H  0.50083726  0.83308377  0.67964872     0.14600
C825        C  0.46168883  0.62360190  0.64596134     0.30000
C826        C  0.42724036  0.59300807  0.66499944    -0.36300
C827        C  0.39479766  0.55921168  0.64684951     0.16000
C828        C  0.39635802  0.55528816  0.61238132     0.21800
C829        C  0.43086555  0.58582449  0.59334728    -0.34400
C830        C  0.46296569  0.62000677  0.61143410     0.15900
O831        O  0.49350579  0.65971128  0.65738362    -0.26500
C832        C  0.51522104  0.67964022  0.62978206     0.05700
C833        C  0.49771747  0.65642180  0.60048994    -0.31300
O834        O  0.36126600  0.52268361  0.60035772    -0.23200
C835        C  0.33681117  0.50569623  0.62746144    -0.03200
C836        C  0.35607625  0.52708863  0.65706566    -0.17600
H837        H  0.42497938  0.59632415  0.69188627     0.20400
H838        H  0.43170720  0.58406217  0.56619667     0.18800
H839        H  0.50787890  0.66603813  0.57476035     0.18700
H840        H  0.34269943  0.52093002  0.68223430     0.14600
loop_ 
_geom_bond_atom_site_label_1 
_geom_bond_atom_site_label_2 
_geom_bond_distance 
_geom_bond_site_symmetry_2 
_ccdc_geom_bond_type 
O1          Cr19   1.979       .  S
O1            C9   1.263       .  A
O2          Cr19   2.009       .  S
O2            C3   1.263       .  A
C3            O4   1.258       .  A
C3          C332   1.462       .  S
O4          Cr20   1.980       .  S
O5          Cr20   1.988       .  S
O5            C6   1.260       .  A
C6            O7   1.261       .  A
C6          C399   1.472       .  S
O7          Cr21   1.992       .  S
O8          Cr21   2.012       .  S
O8            C9   1.270       .  A
C9          C351   1.473       .  S
O10         Cr19   1.995       .  S
O10          C18   1.260       .  A
O11         Cr19   1.982       .  S
O11          C12   1.260       .  A
C12          O13   1.265       .  A
C12         C383   1.467       .  S
O13         Cr20   2.010       .  S
O14         Cr20   1.983       .  S
O14          C15   1.263       .  A
C15          O16   1.266       .  A
C15         C412   1.468       .  S
O16         Cr21   1.998       .  S
O17         Cr21   1.988       .  S
O17          C18   1.257       .  A
C18         C364   1.469       .  S
Cr19         O22   1.778       .  S
Cr20         O22   1.774       .  S
Cr21         O22   1.772       .  S
O23         Cr41   1.977       .  S
O23          C31   1.261       .  A
O24         Cr41   2.007       .  S
O24          C25   1.264       .  A
C25          O26   1.258       .  A
C25         C252   1.470       .  S
O26         Cr42   1.986       .  S
O27         Cr42   1.995       .  S
O27          C28   1.264       .  A
C28          O29   1.262       .  A
C28         C396   1.472       .  S
O29         Cr43   1.988       .  S
O30         Cr43   2.016       .  S
O30          C31   1.268       .  A
C31         C271   1.468       .  S
O32         Cr41   2.010       .  S
O32          C40   1.264       .  A
O33         Cr41   1.980       .  S
O33          C34   1.261       .  A
C34          O35   1.268       .  A
C34         C300   1.468       .  S
O35         Cr42   2.012       .  S
O36         Cr42   1.985       .  S
O36          C37   1.262       .  A
C37          O38   1.264       .  A
C37         C319   1.467       .  S
O38         Cr43   1.995       .  S
O39         Cr43   1.988       .  S
O39          C40   1.258       .  A
C40         C284   1.476       .  S
Cr41         O44   1.771       .  S
Cr42         O44   1.773       .  S
Cr43         O44   1.773       .  S
O45         Cr63   1.978       .  S
O45          C53   1.262       .  A
O46         Cr63   2.013       .  S
O46          C47   1.264       .  A
C47          O48   1.258       .  A
C47         C188   1.462       .  S
O48         Cr64   1.976       .  S
O49         Cr64   1.993       .  S
O49          C50   1.261       .  A
C50          O51   1.260       .  A
C50         C316   1.467       .  S
O51         Cr65   1.984       .  S
O52         Cr65   2.008       .  S
O52          C53   1.267       .  A
C53         C204   1.469       .  S
O54         Cr63   1.998       .  S
O54          C62   1.261       .  A
O55         Cr63   1.984       .  S
O55          C56   1.260       .  A
C56          O57   1.264       .  A
C56         C236   1.468       .  S
O57         Cr64   2.011       .  S
O58         Cr64   1.984       .  S
O58          C59   1.263       .  A
C59          O60   1.266       .  A
C59         C415   1.470       .  S
O60         Cr65   2.001       .  S
O61         Cr65   1.986       .  S
O61          C62   1.259       .  A
C62         C220   1.468       .  S
Cr63         O66   1.777       .  S
Cr64         O66   1.774       .  S
Cr65         O66   1.774       .  S
O67         Cr85   1.980       .  S
O67          C75   1.261       .  A
O68         Cr85   2.007       .  S
O68          C69   1.264       .  A
C69          O70   1.261       .  A
C69         C287   1.475       .  S
O70         Cr86   1.993       .  S
O71         Cr86   1.994       .  S
O71          C72   1.264       .  A
C72          O73   1.262       .  A
C72         C172   1.464       .  S
O73         Cr87   1.982       .  S
O74         Cr87   2.009       .  S
O74          C75   1.266       .  A
C75         C303   1.466       .  S
O76         Cr85   2.005       .  S
O76          C84   1.263       .  A
O77         Cr85   1.978       .  S
O77          C78   1.260       .  A
C78          O79   1.267       .  A
C78         C380   1.465       .  S
O79         Cr86   2.009       .  S
O80         Cr86   1.990       .  S
O80          C81   1.262       .  A
C81          O82   1.263       .  A
C81         C156   1.469       .  S
O82         Cr87   1.992       .  S
O83         Cr87   1.982       .  S
O83          C84   1.258       .  A
C84         C367   1.466       .  S
Cr85         O88   1.767       .  S
Cr86         O88   1.771       .  S
Cr87         O88   1.772       .  S
O89        Cr107   2.012       .  S
O89          C97   1.264       .  A
O90        Cr107   1.966       .  S
O90          C91   1.259       .  A
C91          O92   1.266       .  A
C91         C335   1.463       .  S
O92        Cr108   2.011       .  S
O93        Cr108   1.981       .  S
O93          C94   1.260       .  A
C94          O95   1.265       .  A
C94         C140   1.471       .  S
O95        Cr109   2.004       .  S
O96        Cr109   1.988       .  S
O96          C97   1.259       .  A
C97         C348   1.469       .  S
O98        Cr107   1.965       .  S
O98         C106   1.259       .  A
O99        Cr107   2.013       .  S
O99         C100   1.264       .  A
C100        O101   1.258       .  A
C100        C207   1.468       .  S
O101       Cr108   1.981       .  S
O102       Cr108   1.997       .  S
O102        C103   1.264       .  A
C103        O104   1.260       .  A
C103        C175   1.467       .  S
O104       Cr109   1.982       .  S
O105       Cr109   2.012       .  S
O105        C106   1.267       .  A
C106        C191   1.463       .  S
Cr107       O110   1.777       .  S
Cr108       O110   1.772       .  S
Cr109       O110   1.773       .  S
O111       Cr129   1.979       .  S
O111        C119   1.261       .  A
O112       Cr129   2.001       .  S
O112        C113   1.263       .  A
C113        O114   1.260       .  A
C113        C255   1.467       .  S
O114       Cr130   1.987       .  S
O115       Cr130   1.989       .  S
O115        C116   1.261       .  A
C116        O117   1.263       .  A
C116        C143   1.471       .  S
O117       Cr131   1.997       .  S
O118       Cr131   2.013       .  S
O118        C119   1.267       .  A
C119        C268   1.468       .  S
O120       Cr129   1.999       .  S
O120        C128   1.262       .  A
O121       Cr129   1.986       .  S
O121        C122   1.262       .  A
C122        O123   1.265       .  A
C122        C239   1.470       .  S
O123       Cr130   2.009       .  S
O124       Cr130   1.981       .  S
O124        C125   1.262       .  A
C125        O126   1.266       .  A
C125        C159   1.466       .  S
O126       Cr131   1.997       .  S
O127       Cr131   1.987       .  S
O127        C128   1.258       .  A
C128        C223   1.469       .  S
Cr129       O132   1.770       .  S
Cr130       O132   1.772       .  S
Cr131       O132   1.772       .  S
C133        C138   1.380       .  A
C133        C134   1.407       .  A
C133        O139   1.321       .  A
C134        C135   1.406       .  A
C134        H145   1.082       .  S
C135        C144   1.368       .  A
C135        C136   1.380       .  A
C136        C137   1.401       .  A
C136        O142   1.314       .  A
C137        C138   1.399       .  A
C137        H146   1.082       .  S
C138        C141   1.358       .  A
O139        C140   1.332       .  A
C140        C141   1.390       .  A
C141        H147   1.083       .  S
O142        C143   1.330       .  A
C143        C144   1.393       .  A
C144        H148   1.082       .  S
C149        C154   1.381       .  A
C149        C150   1.403       .  A
C149        O155   1.321       .  A
C150        C151   1.403       .  A
C150        H161   1.082       .  S
C151        C160   1.360       .  A
C151        C152   1.381       .  A
C152        C153   1.401       .  A
C152        O158   1.319       .  A
C153        C154   1.402       .  A
C153        H162   1.082       .  S
C154        C157   1.358       .  A
O155        C156   1.330       .  A
C156        C157   1.391       .  A
C157        H163   1.082       .  S
O158        C159   1.329       .  A
C159        C160   1.391       .  A
C160        H164   1.083       .  S
C165        C170   1.381       .  A
C165        C166   1.398       .  A
C165        O171   1.313       .  A
C166        C167   1.397       .  A
C166        H177   1.082       .  S
C167        C176   1.355       .  A
C167        C168   1.381       .  A
C168        C169   1.407       .  A
C168        O174   1.321       .  A
C169        C170   1.405       .  A
C169        H178   1.082       .  S
C170        C173   1.366       .  A
O171        C172   1.328       .  A
C172        C173   1.392       .  A
C173        H179   1.082       .  S
O174        C175   1.332       .  A
C175        C176   1.389       .  A
C176        H180   1.083       .  S
C181        C186   1.381       .  A
C181        C182   1.402   1_554  A
C181        O187   1.318       .  A
C182        C603   1.401   1_455  A
C182        H193   1.082       .  S
C183        C192   1.360       .  A
C183        C184   1.381       .  A
C183        C602   1.401   1_655  A
C184        C605   1.402   1_655  A
C184        O190   1.318       .  A
C185        C186   1.401       .  A
C185        C604   1.402   1_454  A
C185        H614   1.082   1_455  S
C186        C189   1.360       .  A
O187        C188   1.330       .  A
C188        C189   1.389       .  A
C189        H195   1.083       .  S
O190        C191   1.329       .  A
C191        C192   1.390       .  A
C192        H196   1.083       .  S
H194        C605   1.082   1_655  S
C197        C202   1.381       .  A
C197        C198   1.405       .  A
C197        O203   1.320       .  A
C198        C199   1.404   1_455  A
C198        H209   1.082       .  S
C199        C208   1.364       .  A
C199        C200   1.381       .  A
C200        C201   1.403       .  A
C200        O206   1.318       .  A
C201        C202   1.402   1_655  A
C201        H210   1.082       .  S
C202        C205   1.362       .  A
O203        C204   1.332       .  A
C204        C205   1.390       .  A
C205        H211   1.082       .  S
O206        C207   1.330       .  A
C207        C208   1.391       .  A
C208        H212   1.083       .  S
C213        C218   1.381       .  A
C213        C214   1.400       .  A
C213        O219   1.316       .  A
C214        C215   1.399       .  A
C214        H225   1.082       .  S
C215        C224   1.357       .  A
C215        C216   1.381       .  A
C216        C217   1.406       .  A
C216        O222   1.322       .  A
C217        C218   1.405       .  A
C217        H226   1.082       .  S
C218        C221   1.365       .  A
O219        C220   1.329       .  A
C220        C221   1.392       .  A
C221        H227   1.082       .  S
O222        C223   1.332       .  A
C223        C224   1.390       .  A
C224        H228   1.083       .  S
C229        C234   1.380       .  A
C229        C650   1.404   1_554  A
C229        O235   1.318       .  A
C230        C231   1.403       .  A
C230        C649   1.404       .  A
C230        H241   1.082       .  S
C231        C240   1.364       .  A
C231        C232   1.380       .  A
C232        C653   1.404       .  A
C232        O238   1.318       .  A
C233        C234   1.402       .  A
C233        C652   1.404   1_554  A
C233        H242   1.082       .  S
C234        C237   1.364       .  A
O235        C236   1.331       .  A
C236        C237   1.390       .  A
C237        H243   1.082       .  S
O238        C239   1.331       .  A
C239        C240   1.391       .  A
C240        H244   1.083       .  S
C245        C250   1.380       .  A
C245        C246   1.407   1_564  A
C245        O251   1.322       .  A
C246        C667   1.406       .  A
C246        H257   1.082       .  S
C247        C256   1.366       .  A
C247        C248   1.381       .  A
C247        C666   1.406       .  A
C248        C249   1.399       .  A
C248        O254   1.315       .  A
C249        C670   1.399   1_545  A
C249        H258   1.082       .  S
C250        C253   1.357       .  A
C250        C669   1.399   1_564  A
O251        C252   1.333       .  A
C252        C253   1.389       .  A
C253        H259   1.083       .  S
O254        C255   1.329       .  A
C255        C256   1.393       .  A
C256        H260   1.082       .  S
C261        C266   1.381       .  A
C261        C262   1.403       .  A
C261        O267   1.318       .  A
C262        C263   1.402   1_545  A
C262        H273   1.082       .  S
C263        C272   1.362       .  A
C263        C264   1.381       .  A
C264        C265   1.403       .  A
C264        O270   1.318       .  A
C265        C266   1.402   1_565  A
C265        H274   1.082       .  S
C266        C269   1.363       .  A
O267        C268   1.330       .  A
C268        C269   1.391       .  A
C269        H275   1.083       .  S
O270        C271   1.330       .  A
C271        C272   1.391       .  A
C272        H276   1.083       .  S
C277        C282   1.380       .  A
C277        C278   1.409       .  A
C277        O283   1.324       .  A
C278        C279   1.408   1_455  A
C278        H289   1.082       .  S
C279        C288   1.369       .  A
C279        C280   1.380       .  A
C280        C281   1.402   1_655  A
C280        O286   1.317       .  A
C281        C282   1.401       .  A
C281        H290   1.082       .  S
C282        C285   1.360       .  A
O283        C284   1.334       .  A
C284        C285   1.391       .  A
C285        H291   1.083       .  S
O286        C287   1.330       .  A
C287        C288   1.395       .  A
C288        H292   1.082       .  S
C293        C298   1.381       .  A
C293        C294   1.403   1_455  A
C293        O299   1.320       .  A
C294        C715   1.403   1_554  A
C294        H305   1.082       .  S
C295        C304   1.360       .  A
C295        C296   1.381       .  A
C295        C714   1.403       .  A
C296        C297   1.401   1_655  A
C296        O302   1.318       .  A
C297        C718   1.401       .  A
C297        H306   1.082       .  S
C298        C301   1.358       .  A
C298        C717   1.401   1_554  A
O299        C300   1.331       .  A
C300        C301   1.390       .  A
C301        H307   1.082   1_554  S
O302        C303   1.329       .  A
C303        C304   1.392       .  A
C304        H308   1.083       .  S
C309        C314   1.380       .  A
C309        C310   1.405       .  A
C309        O315   1.318       .  A
C310        C311   1.403       .  A
C310        H321   1.082       .  S
C311        C320   1.365       .  A
C311        C312   1.381       .  A
C312        C313   1.402       .  A
C312        O318   1.316       .  A
C313        C314   1.400       .  A
C313        H322   1.082       .  S
C314        C317   1.362       .  A
O315        C316   1.332       .  A
C316        C317   1.389       .  A
C317        H323   1.083       .  S
O318        C319   1.330       .  A
C319        C320   1.391       .  A
C320        H324   1.082       .  S
C325        C330   1.381       .  A
C325        C326   1.400       .  A
C325        O331   1.315       .  A
C326        C327   1.399   1_565  A
C326        H337   1.082       .  S
C327        C336   1.358       .  A
C327        C328   1.381       .  A
C328        C329   1.404       .  A
C328        O334   1.319       .  A
C329        C330   1.403   1_545  A
C329        H338   1.082       .  S
C330        C333   1.363       .  A
O331        C332   1.328       .  A
C332        C333   1.391       .  A
C333        H339   1.082       .  S
O334        C335   1.331       .  A
C335        C336   1.388       .  A
C336        H340   1.083       .  S
C341        C346   1.381       .  A
C341        C342   1.404   1_545  A
C341        O347   1.321       .  A
C342        C763   1.404       .  A
C342        H353   1.082       .  S
C343        C352   1.361       .  A
C343        C344   1.380       .  A
C343        C762   1.404   1_554  A
C344        C345   1.405   1_565  A
C344        O350   1.322       .  A
C345        C766   1.405       .  A
C345        H354   1.082       .  S
C346        C349   1.362       .  A
C346        C765   1.405       .  A
O347        C348   1.331       .  A
C348        C349   1.390       .  A
C349        H355   1.082       .  S
O350        C351   1.332       .  A
C351        C352   1.391       .  A
C352        H356   1.082       .  S
C357        C362   1.381       .  A
C357        C778   1.406       .  A
C357        O363   1.321       .  A
C358        C359   1.405       .  A
C358        C777   1.406       .  A
C358        H369   1.082       .  S
C359        C368   1.365       .  A
C359        C360   1.381       .  A
C360        C781   1.399       .  A
C360        O366   1.315       .  A
C361        C362   1.398   1_556  A
C361        C780   1.399       .  A
C361        H370   1.082       .  S
C362        C365   1.356       .  A
O363        C364   1.332       .  A
C364        C365   1.389       .  A
C365        H371   1.083       .  S
O366        C367   1.328       .  A
C367        C368   1.392       .  A
C368        H372   1.082       .  S
C373        C378   1.381       .  A
C373        C374   1.403       .  A
C373        O379   1.319       .  A
C374        C375   1.403       .  A
C374        H385   1.082       .  S
C375        C384   1.360       .  A
C375        C376   1.381       .  A
C376        C377   1.401       .  A
C376        O382   1.318       .  A
C377        C378   1.401       .  A
C377        H386   1.082       .  S
C378        C381   1.359       .  A
O379        C380   1.330       .  A
C380        C381   1.390       .  A
C381        H387   1.082       .  S
O382        C383   1.329       .  A
C383        C384   1.391       .  A
C384        H388   1.083       .  S
C389        C394   1.381       .  A
C389        C390   1.403       .  A
C389        O395   1.321       .  A
C390        C391   1.404       .  A
C390        H401   1.082       .  S
C391        C400   1.360       .  A
C391        C392   1.381       .  A
C392        C393   1.403       .  A
C392        O398   1.322       .  A
C393        C394   1.404       .  A
C393        H402   1.082       .  S
C394        C397   1.360       .  A
O395        C396   1.331       .  A
C396        C397   1.392       .  A
C397        H403   1.083       .  S
O398        C399   1.331       .  A
C399        C400   1.392       .  A
C400        H404   1.083       .  S
C405        C410   1.381       .  A
C405        C406   1.403       .  A
C405        O411   1.320       .  A
C406        C407   1.403       .  A
C406        H417   1.082       .  S
C407        C416   1.360       .  A
C407        C408   1.381       .  A
C408        C409   1.403       .  A
C408        O414   1.320       .  A
C409        C410   1.403       .  A
C409        H418   1.082       .  S
C410        C413   1.360       .  A
O411        C412   1.330       .  A
C412        C413   1.392       .  A
C413        H419   1.082       .  S
O414        C415   1.331       .  A
C415        C416   1.392       .  A
C416        H420   1.083       .  S
O421       Cr439   1.979       .  S
O421        C429   1.263       .  A
O422       Cr439   2.009       .  S
O422        C423   1.263       .  A
C423        O424   1.258       .  A
C423        C752   1.462       .  S
O424       Cr440   1.980       .  S
O425       Cr440   1.988       .  S
O425        C426   1.260       .  A
C426        O427   1.261       .  A
C426        C819   1.472       .  S
O427       Cr441   1.992       .  S
O428       Cr441   2.012       .  S
O428        C429   1.270       .  A
C429        C771   1.473       .  S
O430       Cr439   1.995       .  S
O430        C438   1.260       .  A
O431       Cr439   1.982       .  S
O431        C432   1.260       .  A
C432        O433   1.265       .  A
C432        C803   1.467       .  S
O433       Cr440   2.010       .  S
O434       Cr440   1.983       .  S
O434        C435   1.263       .  A
C435        O436   1.266       .  A
C435        C832   1.468       .  S
O436       Cr441   1.998       .  S
O437       Cr441   1.988       .  S
O437        C438   1.257       .  A
C438        C784   1.469       .  S
Cr439       O442   1.778       .  S
Cr440       O442   1.774       .  S
Cr441       O442   1.772       .  S
O443       Cr461   1.977       .  S
O443        C451   1.261       .  A
O444       Cr461   2.007       .  S
O444        C445   1.264       .  A
C445        O446   1.258       .  A
C445        C672   1.470       .  S
O446       Cr462   1.986       .  S
O447       Cr462   1.995       .  S
O447        C448   1.264       .  A
C448        O449   1.262       .  A
C448        C816   1.472       .  S
O449       Cr463   1.988       .  S
O450       Cr463   2.016       .  S
O450        C451   1.268       .  A
C451        C691   1.468       .  S
O452       Cr461   2.010       .  S
O452        C460   1.264       .  A
O453       Cr461   1.980       .  S
O453        C454   1.261       .  A
C454        O455   1.268       .  A
C454        C720   1.468       .  S
O455       Cr462   2.012       .  S
O456       Cr462   1.985       .  S
O456        C457   1.262       .  A
C457        O458   1.264       .  A
C457        C739   1.467       .  S
O458       Cr463   1.995       .  S
O459       Cr463   1.988       .  S
O459        C460   1.258       .  A
C460        C704   1.476       .  S
Cr461       O464   1.771       .  S
Cr462       O464   1.773       .  S
Cr463       O464   1.773       .  S
O465       Cr483   1.978       .  S
O465        C473   1.262       .  A
O466       Cr483   2.013       .  S
O466        C467   1.264       .  A
C467        O468   1.258       .  A
C467        C608   1.462       .  S
O468       Cr484   1.976       .  S
O469       Cr484   1.993       .  S
O469        C470   1.261       .  A
C470        O471   1.260       .  A
C470        C736   1.467       .  S
O471       Cr485   1.984       .  S
O472       Cr485   2.008       .  S
O472        C473   1.267       .  A
C473        C624   1.469       .  S
O474       Cr483   1.998       .  S
O474        C482   1.261       .  A
O475       Cr483   1.984       .  S
O475        C476   1.260       .  A
C476        O477   1.264       .  A
C476        C656   1.468       .  S
O477       Cr484   2.011       .  S
O478       Cr484   1.984       .  S
O478        C479   1.263       .  A
C479        O480   1.266       .  A
C479        C835   1.470       .  S
O480       Cr485   2.001       .  S
O481       Cr485   1.986       .  S
O481        C482   1.259       .  A
C482        C640   1.468       .  S
Cr483       O486   1.777       .  S
Cr484       O486   1.774       .  S
Cr485       O486   1.774       .  S
O487       Cr505   1.980       .  S
O487        C495   1.261       .  A
O488       Cr505   2.007       .  S
O488        C489   1.264       .  A
C489        O490   1.261       .  A
C489        C707   1.475       .  S
O490       Cr506   1.993       .  S
O491       Cr506   1.994       .  S
O491        C492   1.264       .  A
C492        O493   1.262       .  A
C492        C592   1.464       .  S
O493       Cr507   1.982       .  S
O494       Cr507   2.009       .  S
O494        C495   1.266       .  A
C495        C723   1.466       .  S
O496       Cr505   2.005       .  S
O496        C504   1.263       .  A
O497       Cr505   1.978       .  S
O497        C498   1.260       .  A
C498        O499   1.267       .  A
C498        C800   1.465       .  S
O499       Cr506   2.009       .  S
O500       Cr506   1.990       .  S
O500        C501   1.262       .  A
C501        O502   1.263       .  A
C501        C576   1.469       .  S
O502       Cr507   1.992       .  S
O503       Cr507   1.982       .  S
O503        C504   1.258       .  A
C504        C787   1.466       .  S
Cr505       O508   1.767       .  S
Cr506       O508   1.771       .  S
Cr507       O508   1.772       .  S
O509       Cr527   2.012       .  S
O509        C517   1.264       .  A
O510       Cr527   1.966       .  S
O510        C511   1.259       .  A
C511        O512   1.266       .  A
C511        C755   1.463       .  S
O512       Cr528   2.011       .  S
O513       Cr528   1.981       .  S
O513        C514   1.260       .  A
C514        O515   1.265       .  A
C514        C560   1.471       .  S
O515       Cr529   2.004       .  S
O516       Cr529   1.988       .  S
O516        C517   1.259       .  A
C517        C768   1.469       .  S
O518       Cr527   1.965       .  S
O518        C526   1.259       .  A
O519       Cr527   2.013       .  S
O519        C520   1.264       .  A
C520        O521   1.258       .  A
C520        C627   1.468       .  S
O521       Cr528   1.981       .  S
O522       Cr528   1.997       .  S
O522        C523   1.264       .  A
C523        O524   1.260       .  A
C523        C595   1.467       .  S
O524       Cr529   1.982       .  S
O525       Cr529   2.012       .  S
O525        C526   1.267       .  A
C526        C611   1.463       .  S
Cr527       O530   1.777       .  S
Cr528       O530   1.772       .  S
Cr529       O530   1.773       .  S
O531       Cr549   1.979       .  S
O531        C539   1.261       .  A
O532       Cr549   2.001       .  S
O532        C533   1.263       .  A
C533        O534   1.260       .  A
C533        C675   1.467       .  S
O534       Cr550   1.987       .  S
O535       Cr550   1.989       .  S
O535        C536   1.261       .  A
C536        O537   1.263       .  A
C536        C563   1.471       .  S
O537       Cr551   1.997       .  S
O538       Cr551   2.013       .  S
O538        C539   1.267       .  A
C539        C688   1.468       .  S
O540       Cr549   1.999       .  S
O540        C548   1.262       .  A
O541       Cr549   1.986       .  S
O541        C542   1.262       .  A
C542        O543   1.265       .  A
C542        C659   1.470       .  S
O543       Cr550   2.009       .  S
O544       Cr550   1.981       .  S
O544        C545   1.262       .  A
C545        O546   1.266       .  A
C545        C579   1.466       .  S
O546       Cr551   1.997       .  S
O547       Cr551   1.987       .  S
O547        C548   1.258       .  A
C548        C643   1.469       .  S
Cr549       O552   1.770       .  S
Cr550       O552   1.772       .  S
Cr551       O552   1.772       .  S
C553        C558   1.380       .  A
C553        C554   1.407       .  A
C553        O559   1.321       .  A
C554        C555   1.406       .  A
C554        H565   1.082       .  S
C555        C564   1.368       .  A
C555        C556   1.380       .  A
C556        C557   1.401       .  A
C556        O562   1.314       .  A
C557        C558   1.399       .  A
C557        H566   1.082       .  S
C558        C561   1.358       .  A
O559        C560   1.332       .  A
C560        C561   1.390       .  A
C561        H567   1.083       .  S
O562        C563   1.330       .  A
C563        C564   1.393       .  A
C564        H568   1.082       .  S
C569        C574   1.381       .  A
C569        C570   1.403       .  A
C569        O575   1.321       .  A
C570        C571   1.403       .  A
C570        H581   1.082       .  S
C571        C580   1.360       .  A
C571        C572   1.381       .  A
C572        C573   1.401       .  A
C572        O578   1.319       .  A
C573        C574   1.402       .  A
C573        H582   1.082       .  S
C574        C577   1.358       .  A
O575        C576   1.330       .  A
C576        C577   1.391       .  A
C577        H583   1.082       .  S
O578        C579   1.329       .  A
C579        C580   1.391       .  A
C580        H584   1.083       .  S
C585        C590   1.381       .  A
C585        C586   1.398       .  A
C585        O591   1.313       .  A
C586        C587   1.397       .  A
C586        H597   1.082       .  S
C587        C596   1.355       .  A
C587        C588   1.381       .  A
C588        C589   1.407       .  A
C588        O594   1.321       .  A
C589        C590   1.405       .  A
C589        H598   1.082       .  S
C590        C593   1.366       .  A
O591        C592   1.328       .  A
C592        C593   1.392       .  A
C593        H599   1.082       .  S
O594        C595   1.332       .  A
C595        C596   1.389       .  A
C596        H600   1.083       .  S
C601        C606   1.381       .  A
C601        C602   1.402       .  A
C601        O607   1.318       .  A
C602        H613   1.082       .  S
C603        C612   1.360       .  A
C603        C604   1.381       .  A
C604        O610   1.318       .  A
C605        C606   1.401       .  A
C606        C609   1.360       .  A
O607        C608   1.330       .  A
C608        C609   1.389       .  A
C609        H615   1.083       .  S
O610        C611   1.329       .  A
C611        C612   1.390       .  A
C612        H616   1.083       .  S
C617        C622   1.381       .  A
C617        C618   1.405       .  A
C617        O623   1.320       .  A
C618        C619   1.404   1_455  A
C618        H629   1.082       .  S
C619        C628   1.364       .  A
C619        C620   1.381       .  A
C620        C621   1.403       .  A
C620        O626   1.318       .  A
C621        C622   1.402   1_655  A
C621        H630   1.082       .  S
C622        C625   1.362       .  A
O623        C624   1.332       .  A
C624        C625   1.390       .  A
C625        H631   1.082       .  S
O626        C627   1.330       .  A
C627        C628   1.391       .  A
C628        H632   1.083       .  S
C633        C638   1.381       .  A
C633        C634   1.400       .  A
C633        O639   1.316       .  A
C634        C635   1.399       .  A
C634        H645   1.082       .  S
C635        C644   1.357       .  A
C635        C636   1.381       .  A
C636        C637   1.406       .  A
C636        O642   1.322       .  A
C637        C638   1.405       .  A
C637        H646   1.082       .  S
C638        C641   1.365       .  A
O639        C640   1.329       .  A
C640        C641   1.392       .  A
C641        H647   1.082       .  S
O642        C643   1.332       .  A
C643        C644   1.390       .  A
C644        H648   1.083       .  S
C649        C654   1.380       .  A
C649        O655   1.318       .  A
C650        C651   1.403       .  A
C650        H661   1.082       .  S
C651        C660   1.364       .  A
C651        C652   1.380       .  A
C652        O658   1.318       .  A
C653        C654   1.402       .  A
C653        H662   1.082       .  S
C654        C657   1.364       .  A
O655        C656   1.331       .  A
C656        C657   1.390       .  A
C657        H663   1.082       .  S
O658        C659   1.331       .  A
C659        C660   1.391       .  A
C660        H664   1.083       .  S
C665        C670   1.380       .  A
C665        C666   1.407   1_565  A
C665        O671   1.322       .  A
C666        H677   1.082       .  S
C667        C676   1.366       .  A
C667        C668   1.381       .  A
C668        C669   1.399       .  A
C668        O674   1.315       .  A
C669        H678   1.082       .  S
C670        C673   1.357       .  A
O671        C672   1.333       .  A
C672        C673   1.389       .  A
C673        H679   1.083       .  S
O674        C675   1.329       .  A
C675        C676   1.393       .  A
C676        H680   1.082       .  S
C681        C686   1.381       .  A
C681        C682   1.403       .  A
C681        O687   1.318       .  A
C682        C683   1.402   1_545  A
C682        H693   1.082       .  S
C683        C692   1.362       .  A
C683        C684   1.381       .  A
C684        C685   1.403       .  A
C684        O690   1.318       .  A
C685        C686   1.402   1_565  A
C685        H694   1.082       .  S
C686        C689   1.363       .  A
O687        C688   1.330       .  A
C688        C689   1.391       .  A
C689        H695   1.083       .  S
O690        C691   1.330       .  A
C691        C692   1.391       .  A
C692        H696   1.083       .  S
C697        C702   1.380       .  A
C697        C698   1.409       .  A
C697        O703   1.324       .  A
C698        C699   1.408   1_455  A
C698        H709   1.082       .  S
C699        C708   1.369       .  A
C699        C700   1.380       .  A
C700        C701   1.402   1_655  A
C700        O706   1.317       .  A
C701        C702   1.401       .  A
C701        H710   1.082       .  S
C702        C705   1.360       .  A
O703        C704   1.334       .  A
C704        C705   1.391       .  A
C705        H711   1.083       .  S
O706        C707   1.330       .  A
C707        C708   1.395       .  A
C708        H712   1.082       .  S
C713        C718   1.381       .  A
C713        C714   1.403   1_455  A
C713        O719   1.320       .  A
C714        H725   1.082       .  S
C715        C724   1.360       .  A
C715        C716   1.381       .  A
C716        C717   1.401   1_655  A
C716        O722   1.318       .  A
C717        H726   1.082       .  S
C718        C721   1.358       .  A
O719        C720   1.331       .  A
C720        C721   1.390       .  A
C721        H727   1.082       .  S
O722        C723   1.329       .  A
C723        C724   1.392       .  A
C724        H728   1.083   1_556  S
C729        C734   1.380       .  A
C729        C730   1.405       .  A
C729        O735   1.318       .  A
C730        C731   1.403       .  A
C730        H741   1.082       .  S
C731        C740   1.365       .  A
C731        C732   1.381       .  A
C732        C733   1.402       .  A
C732        O738   1.316       .  A
C733        C734   1.400       .  A
C733        H742   1.082       .  S
C734        C737   1.362       .  A
O735        C736   1.332       .  A
C736        C737   1.389       .  A
C737        H743   1.083       .  S
O738        C739   1.330       .  A
C739        C740   1.391       .  A
C740        H744   1.082       .  S
C745        C750   1.381       .  A
C745        C746   1.400       .  A
C745        O751   1.315       .  A
C746        C747   1.399   1_565  A
C746        H757   1.082       .  S
C747        C756   1.358       .  A
C747        C748   1.381       .  A
C748        C749   1.404       .  A
C748        O754   1.319       .  A
C749        C750   1.403   1_545  A
C749        H758   1.082       .  S
C750        C753   1.363       .  A
O751        C752   1.328       .  A
C752        C753   1.391       .  A
C753        H759   1.082       .  S
O754        C755   1.331       .  A
C755        C756   1.388       .  A
C756        H760   1.083       .  S
C761        C766   1.381   1_556  A
C761        C762   1.404   1_545  A
C761        O767   1.321       .  A
C762        H773   1.082       .  S
C763        C772   1.361       .  A
C763        C764   1.380       .  A
C764        C765   1.405   1_565  A
C764        O770   1.322       .  A
C765        H774   1.082       .  S
C766        C769   1.362   1_554  A
O767        C768   1.331       .  A
C768        C769   1.390       .  A
C769        H775   1.082       .  S
O770        C771   1.332       .  A
C771        C772   1.391       .  A
C772        H776   1.082       .  S
C777        C782   1.381       .  A
C777        O783   1.321       .  A
C778        C779   1.405   1_554  A
C778        H789   1.082       .  S
C779        C788   1.365       .  A
C779        C780   1.381       .  A
C780        O786   1.315       .  A
C781        C782   1.398       .  A
C781        H790   1.082       .  S
C782        C785   1.356       .  A
O783        C784   1.332       .  A
C784        C785   1.389       .  A
C785        H791   1.083       .  S
O786        C787   1.328       .  A
C787        C788   1.392       .  A
C788        H792   1.082       .  S
C793        C798   1.381       .  A
C793        C794   1.403       .  A
C793        O799   1.319       .  A
C794        C795   1.403       .  A
C794        H805   1.082       .  S
C795        C804   1.360       .  A
C795        C796   1.381       .  A
C796        C797   1.401       .  A
C796        O802   1.318       .  A
C797        C798   1.401       .  A
C797        H806   1.082       .  S
C798        C801   1.359       .  A
O799        C800   1.330       .  A
C800        C801   1.390       .  A
C801        H807   1.082       .  S
O802        C803   1.329       .  A
C803        C804   1.391       .  A
C804        H808   1.083       .  S
C809        C814   1.381       .  A
C809        C810   1.403       .  A
C809        O815   1.321       .  A
C810        C811   1.404       .  A
C810        H821   1.082       .  S
C811        C820   1.360       .  A
C811        C812   1.381       .  A
C812        C813   1.403       .  A
C812        O818   1.322       .  A
C813        C814   1.404       .  A
C813        H822   1.082       .  S
C814        C817   1.360       .  A
O815        C816   1.331       .  A
C816        C817   1.392       .  A
C817        H823   1.083       .  S
O818        C819   1.331       .  A
C819        C820   1.392       .  A
C820        H824   1.083       .  S
C825        C830   1.381       .  A
C825        C826   1.403       .  A
C825        O831   1.320       .  A
C826        C827   1.403       .  A
C826        H837   1.082       .  S
C827        C836   1.360       .  A
C827        C828   1.381       .  A
C828        C829   1.403       .  A
C828        O834   1.320       .  A
C829        C830   1.403       .  A
C829        H838   1.082       .  S
C830        C833   1.360       .  A
O831        C832   1.330       .  A
C832        C833   1.392       .  A
C833        H839   1.082       .  S
O834        C835   1.331       .  A
C835        C836   1.392       .  A
C836        H840   1.083       .  S
