geometry optimzed in LAMMPS
_audit_creation_date              2020-11-30 
_audit_creation_method            'lammps2cif' 
_symmetry_space_group_name_H-M    'P1' 
_symmetry_Int_Tables_number       1 
_symmetry_cell_setting            triclinic 
loop_ 
_symmetry_equiv_pos_as_xyz 
  x,y,z 
_cell_length_a                    43.44888216 
_cell_length_b                    35.65676864435721 
_cell_length_c                    31.874980812207678 
_cell_angle_alpha                 89.9407967841241 
_cell_angle_beta                  90.0858258001192 
_cell_angle_gamma                 89.70568212976275 
loop_ 
_atom_site_label 
_atom_site_type_symbol 
_atom_site_fract_x 
_atom_site_fract_y 
_atom_site_fract_z 
_atom_site_charge 
C1          C  0.00216526  0.72573436  0.01629599     0.04100
C2          C  0.47542106  0.70941419  0.00329877    -0.12100
C3          C  0.47665484  0.68063679  0.97346906     0.01600
C4          C  0.50501054  0.67019467  0.95616944    -0.10600
C5          C  0.03238710  0.68755169  0.96824251     0.04100
C6          C  0.03076788  0.71539887  0.99916293    -0.10000
H7          H  0.45351883  0.71722907  0.01705877     0.09700
H8          H  0.50611954  0.64735155  0.93376564     0.07200
H9          H  0.05174691  0.72798811  0.01087195     0.07100
C10         C  0.00138373  0.22675865  0.05839270     0.04100
C11         C  0.47302384  0.23777106  0.04255730    -0.12100
C12         C  0.47053473  0.26763975  0.01432845     0.01600
C13         C  0.99660458  0.28550097  0.00022913    -0.10600
C14         C  0.02562434  0.27572889  0.01627373     0.04100
C15         C  0.02790604  0.24605138  0.04527686    -0.10000
H16         H  0.45233907  0.22402957  0.05345109     0.09700
H17         H  0.99442482  0.30757151  0.97698383     0.07200
H18         H  0.05021372  0.23804089  0.05771808     0.07100
O19         O  0.22477375  0.41251704  0.79043556    -0.84000
O20         O  0.19131476  0.44233883  0.85604236    -0.81400
C21         C  0.19876775  0.42268913  0.88744396     0.99100
O22         O  0.22549720  0.42487691  0.90259543    -0.81500
O23         O  0.28777451  0.43617263  0.90511109    -0.84100
C24         C  0.29993309  0.41103149  0.88240779     1.03600
O25         O  0.29705115  0.41195608  0.84302418    -0.76900
O26         O  0.27039917  0.42688193  0.76663684    -0.77100
C27         C  0.24753066  0.40509656  0.76728252     1.03600
O28         O  0.23498261  0.48679827  0.75906847    -0.84400
O29         O  0.20657055  0.51578234  0.82882744    -0.81400
C30         C  0.20304890  0.52428127  0.86694274     0.99100
O31         O  0.21519188  0.50449511  0.89559925    -0.81500
O32         O  0.27759091  0.51526850  0.89221460    -0.84100
C33         C  0.30461073  0.51445713  0.87792498     1.03600
O34         O  0.31252789  0.48895669  0.85261359    -0.76900
O35         O  0.28007219  0.50571456  0.78069008    -0.77100
C36         C  0.25741557  0.50905765  0.75618600     1.03500
Cr37       Cr  0.21712528  0.46426238  0.81076542     1.93700
Cr38       Cr  0.25154812  0.46979065  0.89466987     1.93200
Cr39       Cr  0.28729415  0.45885134  0.81268513     1.39100
O40         O  0.25196820  0.46429612  0.83957626    -1.22100
C41         C  0.25032203  0.70142862  0.52578891     0.04100
C42         C  0.22278418  0.71578098  0.50922056    -0.12100
C43         C  0.22344191  0.74102721  0.47551235     0.01600
C44         C  0.25182201  0.75058919  0.45754818    -0.10600
C45         C  0.27939786  0.73639226  0.47409043     0.04100
C46         C  0.27859095  0.71221127  0.50864787    -0.10000
H47         H  0.20106045  0.70836333  0.52359850     0.09700
H48         H  0.25254573  0.77022958  0.43158563     0.07200
H49         H  0.29989055  0.70150147  0.52189632     0.07100
C50         C  0.24562342  0.19794501  0.55318194     0.04100
C51         C  0.21733769  0.18550356  0.53697335    -0.12100
C52         C  0.21648489  0.15747711  0.50626022     0.01600
C53         C  0.24405888  0.14154550  0.49198600    -0.10600
C54         C  0.27240969  0.15319950  0.50823272     0.04100
C55         C  0.27317918  0.18193118  0.53821639    -0.10000
H56         H  0.19594174  0.19727860  0.54857507     0.09700
H57         H  0.24341841  0.11933991  0.46878441     0.07200
H58         H  0.29514608  0.19126802  0.55035813     0.07100
O59         O  0.02554666  0.00711084  0.29139494    -0.84400
O60         O  0.05710079  0.97963613  0.35963279    -0.81400
C61         C  0.04776439  0.99979419  0.38973095     0.99100
O62         O  0.02088879  0.99567017  0.40396908    -0.81500
O63         O  0.45619418  0.97584274  0.40492259    -0.84100
C64         C  0.44393625  0.00170338  0.38334946     1.03600
O65         O  0.44911483  0.00374219  0.34451729    -0.76900
O66         O  0.47855980  0.99479163  0.26874751    -0.77100
C67         C  0.00288688  0.01462745  0.26804527     1.03600
O68         O  0.01834827  0.93275347  0.25975614    -0.84400
O69         O  0.04533023  0.90482403  0.33162354    -0.81400
C70         C  0.04915085  0.89741357  0.36998193     0.99100
O71         O  0.03651987  0.91753490  0.39772112    -0.81500
O72         O  0.47357118  0.89949291  0.38829218    -0.84100
C73         C  0.44730354  0.89787725  0.37152263     1.03600
O74         O  0.43796950  0.92436686  0.34824586    -0.76900
O75         O  0.47211511  0.91515679  0.27684263    -0.77100
C76         C  0.49565561  0.91354698  0.25382867     1.03500
Cr77       Cr  0.03382390  0.95593809  0.31268962     1.93700
Cr78       Cr  0.99800007  0.94822965  0.39481975     1.93200
Cr79       Cr  0.46213811  0.95925931  0.31186647     1.39100
O80         O  0.49681839  0.95502509  0.34075815    -1.22100
C81         C  0.32913127  0.07581828  0.48358534    -0.27300
C82         C  0.35269129  0.09552800  0.46329647     0.06400
C83         C  0.35059539  0.13480820  0.45997502     0.26000
C84         C  0.32490315  0.15383228  0.47600800    -0.11700
C85         C  0.30087547  0.13382836  0.49490815    -0.25700
C86         C  0.30342423  0.09470992  0.49919534     0.36800
C87         C  0.37830565  0.07439429  0.44380087     0.06400
F88         F  0.37328138  0.15463984  0.44107803    -0.19500
H89         H  0.32329055  0.18399641  0.47255082     0.16200
F90         F  0.28086389  0.07474407  0.51821975    -0.23200
H91         H  0.33022015  0.04555171  0.48623384     0.18000
C92         C  0.39500381  0.04768454  0.46702214     0.26000
C93         C  0.41683273  0.02497034  0.44727790    -0.11700
C94         C  0.42236529  0.02822286  0.40392940    -0.25700
C95         C  0.40622066  0.05580518  0.38093881     0.36900
C96         C  0.38444790  0.07865713  0.40084453    -0.27400
F97         F  0.38998445  0.04331093  0.50877160    -0.19500
H98         H  0.42899777  0.00427894  0.46595670     0.16200
F99         F  0.41069191  0.06006421  0.33907345    -0.23200
H100        H  0.37152905  0.09879930  0.38235294     0.18000
C101        C  0.08152062  0.08072173  0.45271645    -0.27300
C102        C  0.11255141  0.07873489  0.44047700     0.06400
C103        C  0.12196966  0.05022305  0.41293910     0.26000
C104        C  0.10068093  0.02495429  0.39700667    -0.11700
C105        C  0.06947311  0.02705108  0.40840366    -0.25700
C106        C  0.06002712  0.05513263  0.43677648     0.36800
C107        C  0.13568778  0.10494631  0.45757922     0.06400
F108        F  0.15204954  0.04605730  0.40231705    -0.19500
H109        H  0.10887782  0.00335640  0.37586406     0.16200
F110        F  0.03014609  0.05822044  0.44868867    -0.23200
H111        H  0.07393929  0.10227940  0.47432969     0.18000
C112        C  0.15607419  0.12366922  0.43053614     0.26000
C113        C  0.18163622  0.14226200  0.44675708    -0.11700
C114        C  0.18695080  0.14310553  0.49014223    -0.25700
C115        C  0.16537039  0.12684887  0.51739336     0.36900
C116        C  0.13989883  0.10787588  0.50112214    -0.27400
F117        F  0.15187288  0.12272407  0.38833079    -0.19500
H118        H  0.19787650  0.15505340  0.42537676     0.16200
F119        F  0.17016633  0.12685683  0.55948047    -0.23200
H120        H  0.12449621  0.09355889  0.52242123     0.18000
C121        C  0.34227644  0.76368598  0.39851183    -0.27300
C122        C  0.36094841  0.78585334  0.42445446     0.06400
C123        C  0.35407381  0.78867630  0.46743163     0.26000
C124        C  0.32838223  0.77056337  0.48382951    -0.11700
C125        C  0.30895146  0.74989664  0.45755896    -0.25700
C126        C  0.31640019  0.74575876  0.41493591     0.36800
C127        C  0.38488153  0.81003916  0.40603820     0.06400
F128        F  0.37075779  0.81135565  0.49287538    -0.19500
H129        H  0.32263341  0.77443919  0.51658987     0.16200
F130        F  0.29819439  0.72522974  0.38913383    -0.23200
H131        H  0.34719107  0.76135895  0.36532236     0.18000
C132        C  0.41500012  0.81027643  0.42208161     0.26000
C133        C  0.43566462  0.83804137  0.40952117    -0.11700
C134        C  0.42657365  0.86603415  0.38084439    -0.25700
C135        C  0.39694285  0.86410229  0.36281116     0.36900
C136        C  0.37642630  0.83630720  0.37535109    -0.27400
F137        F  0.42408639  0.78430440  0.45076595    -0.19500
H138        H  0.45844176  0.83832054  0.42333990     0.16200
F139        F  0.38718146  0.88984528  0.33427832    -0.23200
H140        H  0.35328051  0.83651381  0.36265555     0.18000
C141        C  0.14210889  0.75869384  0.43613363    -0.27300
C142        C  0.14260524  0.79772402  0.43085253     0.06400
C143        C  0.16893811  0.81794053  0.44204464     0.26000
C144        C  0.19491835  0.79920003  0.45695596    -0.11700
C145        C  0.19502976  0.76000223  0.46109550    -0.25700
C146        C  0.16821299  0.73980101  0.45123722     0.36800
C147        C  0.11612480  0.81781565  0.41279133     0.06400
F148        F  0.16944789  0.85587870  0.43846786    -0.19500
H149        H  0.21505483  0.81535225  0.46532706     0.16200
F150        F  0.16763494  0.70187081  0.45476113    -0.23200
H151        H  0.12178688  0.74291077  0.42774041     0.18000
C152        C  0.11797310  0.83261950  0.37207737     0.26000
C153        C  0.09502496  0.85678382  0.35721221    -0.11700
C154        C  0.07028726  0.86705806  0.38313844    -0.25700
C155        C  0.06779583  0.85068774  0.42328347     0.36900
C156        C  0.09056226  0.82608309  0.43783315    -0.27400
F157        F  0.14271784  0.82498524  0.34751506    -0.19500
H158        H  0.09751008  0.86906499  0.32632102     0.16200
F159        F  0.04385686  0.85927587  0.44892504    -0.23200
H160        H  0.08901162  0.81488003  0.46936022     0.18000
C161        C  0.26406117  0.25038876  0.65367102    -0.27300
C162        C  0.24527790  0.28229013  0.64950701     0.06400
C163        C  0.22699619  0.28660568  0.61345262     0.26000
C164        C  0.22744842  0.25925276  0.58213507    -0.11700
C165        C  0.24607596  0.22711612  0.58626772    -0.25700
C166        C  0.26434093  0.22282130  0.62251588     0.36800
C167        C  0.24589900  0.31185006  0.68187056     0.06400
F168        F  0.20938716  0.31779733  0.60801671    -0.19500
H169        H  0.21345832  0.26337071  0.55435444     0.16200
F170        F  0.28172246  0.19151664  0.62845986    -0.23200
H171        H  0.27826774  0.24670201  0.68133021     0.18000
C172        C  0.21895175  0.32291053  0.70290479     0.26000
C173        C  0.21967773  0.35264884  0.73150255    -0.11700
C174        C  0.24723947  0.37197777  0.73925180    -0.25700
C175        C  0.27437853  0.35995629  0.71892428     0.36900
C176        C  0.27361482  0.33008622  0.69070413    -0.27400
F177        F  0.19198856  0.30492972  0.69575474    -0.19500
H178        H  0.19854625  0.36103266  0.74688206     0.16200
F179        F  0.30171625  0.37712922  0.72596292    -0.23200
H180        H  0.29458380  0.32176065  0.67484879     0.18000
C181        C  0.27977939  0.58972780  0.68479391    -0.27300
C182        C  0.25283004  0.59412823  0.66074173     0.06400
C183        C  0.22766643  0.57053836  0.66862336     0.26000
C184        C  0.22970086  0.54286551  0.69930372    -0.11700
C185        C  0.25658015  0.53838070  0.72343457    -0.25700
C186        C  0.28159214  0.56244292  0.71623222     0.36800
C187        C  0.25132658  0.62251630  0.62681444     0.06400
F188        F  0.20076949  0.57462979  0.64732574    -0.19500
H189        H  0.20987432  0.52518809  0.70445468     0.16200
F190        F  0.30781628  0.55962310  0.73924124    -0.23200
H191        H  0.29966534  0.60708940  0.67889861     0.18000
C192        C  0.26276682  0.65902788  0.63280082     0.26000
C193        C  0.26234076  0.68478899  0.59976712    -0.11700
C194        C  0.24966616  0.67487267  0.56091274    -0.25700
C195        C  0.23733104  0.63904322  0.55520860     0.36900
C196        C  0.23868788  0.61287664  0.58764931    -0.27400
F197        F  0.27386052  0.67003226  0.67064917    -0.19500
H198        H  0.27164182  0.71256292  0.60451454     0.16200
F199        F  0.22488813  0.62903442  0.51778967    -0.23200
H200        H  0.23031977  0.58484850  0.58183168     0.18000
C201        C  0.07692527  0.35517302  0.98044021    -0.27300
C202        C  0.10343700  0.33580325  0.96752391     0.06400
C203        C  0.10529557  0.29682319  0.97398104     0.26000
C204        C  0.08032205  0.27748568  0.99113078    -0.11700
C205        C  0.05319250  0.29669424  0.00219150    -0.25700
C206        C  0.05206854  0.33599430  0.99758583     0.36800
C207        C  0.12833950  0.35651390  0.94605070     0.06400
F208        F  0.13060761  0.27719961  0.96187767    -0.19500
H209        H  0.08176354  0.24727331  0.99423362     0.16200
F210        F  0.02693945  0.35601366  0.00966648    -0.23200
H211        H  0.07535488  0.38535746  0.97688315     0.18000
C212        C  0.12129777  0.38092713  0.91270037     0.26000
C213        C  0.14443770  0.40170837  0.89361199    -0.11700
C214        C  0.17516886  0.39863555  0.90713337    -0.25700
C215        C  0.18239782  0.37342040  0.93977594     0.36900
C216        C  0.15909544  0.35265573  0.95907956    -0.27400
F217        F  0.09201261  0.38449140  0.89822804    -0.19500
H218        H  0.13809332  0.42061716  0.86839239     0.16200
F219        F  0.21184125  0.36886166  0.95318966    -0.23200
H220        H  0.16500148  0.33407092  0.98476822     0.18000
C221        C  0.39812658  0.28003679  0.95042559    -0.27300
C222        C  0.38787876  0.31521911  0.96468167     0.06400
C223        C  0.40334116  0.33261849  0.99816501     0.26000
C224        C  0.42949176  0.31588270  0.01555357    -0.11700
C225        C  0.44036318  0.28150127  0.00018797    -0.25700
C226        C  0.42421572  0.26316478  0.96814103     0.36800
C227        C  0.36289027  0.33530169  0.94243714     0.06400
F228        F  0.39437368  0.36689975  0.01222368    -0.19500
H229        H  0.44200788  0.33040657  0.04000801     0.16200
F230        F  0.43463710  0.23006037  0.95254866    -0.23200
H231        H  0.38641420  0.26620793  0.92477164     0.18000
C232        C  0.36522059  0.34253580  0.89919104     0.26000
C233        C  0.34359326  0.36557087  0.87928052    -0.11700
C234        C  0.31955973  0.38212444  0.90224260    -0.25700
C235        C  0.31635980  0.37330321  0.94508819     0.36900
C236        C  0.33790369  0.35008559  0.96491731    -0.27400
F237        F  0.38954942  0.32944069  0.87679445    -0.19500
H238        H  0.34663528  0.37206388  0.84634500     0.16200
F239        F  0.29276950  0.38764777  0.96800762    -0.23200
H240        H  0.33555700  0.34439648  0.99814672     0.18000
C241        C  0.48915127  0.13299140  0.11139460    -0.27300
C242        C  0.50542224  0.13758096  0.14913361     0.06400
C243        C  0.02135699  0.17121672  0.15639627     0.26000
C244        C  0.02072459  0.19976512  0.12619873    -0.11700
C245        C  0.00356704  0.19557926  0.08908876    -0.25700
C246        C  0.48855305  0.16143747  0.08126745     0.36800
C247        C  0.50454465  0.10762938  0.18146675     0.06400
F248        F  0.03719963  0.17674531  0.19258389    -0.19500
H249        H  0.03293187  0.22555389  0.13232081     0.16200
F250        F  0.47276930  0.15577324  0.04505244    -0.23200
H251        H  0.47687160  0.10726305  0.10522746     0.18000
C252        C  0.47633184  0.09204575  0.19400063     0.26000
C253        C  0.47568146  0.06268753  0.22301981    -0.11700
C254        C  0.00373789  0.04741494  0.23951865    -0.25700
C255        C  0.03176465  0.06389716  0.22744656     0.36900
C256        C  0.03198334  0.09369510  0.19882673    -0.27400
F257        F  0.44930944  0.10548091  0.17851657    -0.19500
H258        H  0.45363803  0.05110613  0.23188904     0.16200
F259        F  0.05903479  0.05038833  0.24197123    -0.23200
H260        H  0.05382682  0.10524314  0.18908049     0.18000
C261        C  0.09889389  0.65981467  0.89873245    -0.27300
C262        C  0.11346284  0.63239146  0.92369642     0.06400
C263        C  0.10256109  0.62611882  0.96473780     0.26000
C264        C  0.07732695  0.64625585  0.97989088    -0.11700
C265        C  0.06213949  0.67234481  0.95429626    -0.25700
C266        C  0.07311169  0.67929135  0.91367580     0.36800
C267        C  0.13859933  0.60868659  0.90631599     0.06400
F268        F  0.11492016  0.59877607  0.98928180    -0.19500
H269        H  0.06853372  0.64000897  0.01090551     0.16200
F270        F  0.05829522  0.70396662  0.88813685    -0.23200
H271        H  0.10701392  0.66549279  0.86726866     0.18000
C272        C  0.13563870  0.59151051  0.86672955     0.26000
C273        C  0.15776148  0.56571730  0.85296892    -0.11700
C274        C  0.18278067  0.55591787  0.87873034    -0.25700
C275        C  0.18645370  0.57425957  0.91745861     0.36900
C276        C  0.16476770  0.60070671  0.93074785    -0.27400
F277        F  0.11036681  0.59760309  0.84253115    -0.19500
H278        H  0.15433179  0.55177100  0.82316767     0.16200
F279        F  0.21068195  0.56613190  0.94289515    -0.23200
H280        H  0.16798420  0.61420842  0.96084319     0.18000
C281        C  0.42381041  0.59855321  0.95699029    -0.27300
C282        C  0.39895127  0.61541570  0.93603375     0.06400
C283        C  0.39874680  0.65443247  0.92969246     0.26000
C284        C  0.42369262  0.67606118  0.94317217    -0.11700
C285        C  0.44901187  0.65885961  0.96282528    -0.25700
C286        C  0.44863526  0.62005089  0.97039329     0.36800
C287        C  0.37414708  0.59155991  0.91944377     0.06400
F288        F  0.37515136  0.67122178  0.90884435    -0.19500
H289        H  0.42376685  0.70595047  0.93704050     0.16200
F290        F  0.47244163  0.60297443  0.99054725    -0.23200
H291        H  0.42410181  0.56856096  0.96248664     0.18000
C292        C  0.38096014  0.56386930  0.88962160     0.26000
C293        C  0.35804960  0.53959746  0.87577735    -0.11700
C294        C  0.32789106  0.54217942  0.89164633    -0.25700
C295        C  0.32101029  0.57046473  0.92113655     0.36900
C296        C  0.34401604  0.59504355  0.93468725    -0.27400
F297        F  0.40987208  0.56029305  0.87393902    -0.19500
H298        H  0.36414826  0.51836041  0.85295962     0.16200
F299        F  0.29233879  0.57401366  0.93752985    -0.23200
H300        H  0.33853806  0.61618581  0.95790515     0.18000
C301        C  0.48660818  0.77341832  0.12107370    -0.27300
C302        C  0.49888994  0.80934651  0.11479523     0.06400
C303        C  0.01128182  0.81613121  0.07657650     0.26000
C304        C  0.01315758  0.78934059  0.04472012    -0.11700
C305        C  0.50151306  0.75516397  0.05058089    -0.25700
C306        C  0.48777220  0.74658302  0.08927101     0.36800
C307        C  0.49760163  0.83730485  0.14913872     0.06400
F308        F  0.02291336  0.85083820  0.06958804    -0.19500
H309        H  0.02409467  0.79662160  0.01535525     0.16200
F310        F  0.47620333  0.71191143  0.09669773    -0.23200
H311        H  0.47645956  0.76594214  0.15089667     0.18000
C312        C  0.47012258  0.84386577  0.17130666     0.26000
C313        C  0.46964340  0.86867069  0.20520807    -0.11700
C314        C  0.49642636  0.88775434  0.21741957    -0.25700
C315        C  0.02296433  0.87855071  0.19505793     0.36900
C316        C  0.02306519  0.85334804  0.16164108    -0.27400
F317        F  0.44360873  0.82666180  0.15985668    -0.19500
H318        H  0.44820054  0.87301464  0.22181163     0.16200
F319        F  0.04979148  0.89556851  0.20544412    -0.23200
H320        H  0.04450299  0.84781450  0.14546524     0.18000
C321        C  0.50260528  0.72698318  0.01671695     0.04100
C322        C  0.97525899  0.70808832  0.00216193    -0.12100
C323        C  0.97693603  0.67990252  0.97172690     0.01600
C324        C  0.00546356  0.67013096  0.95446792    -0.10600
C325        C  0.53215858  0.68749458  0.96924792     0.04100
C326        C  0.53099230  0.71597310  0.99945680    -0.10000
H327        H  0.95319028  0.71543579  0.01575114     0.09700
H328        H  0.00687716  0.64772647  0.93154747     0.07200
H329        H  0.55216815  0.72842345  0.01068719     0.07100
C330        C  0.50203110  0.22650916  0.05779806     0.04100
C331        C  0.97243980  0.23789213  0.04279677    -0.12100
C332        C  0.97010619  0.26726681  0.01391651     0.01600
C333        C  0.49697376  0.28611591  0.00078043    -0.10600
C334        C  0.52608242  0.27603311  0.01629899     0.04100
C335        C  0.52847892  0.24598364  0.04479437    -0.10000
H336        H  0.95169230  0.22435073  0.05378334     0.09700
H337        H  0.49468328  0.30850319  0.97793935     0.07200
H338        H  0.55083320  0.23781375  0.05694746     0.07100
O339        O  0.72472424  0.41338314  0.78824321    -0.84000
O340        O  0.69148953  0.44191628  0.85478141    -0.81400
C341        C  0.69909267  0.42208369  0.88598665     0.99100
O342        O  0.72585598  0.42426579  0.90104226    -0.81500
O343        O  0.78808190  0.43604331  0.90332769    -0.84100
C344        C  0.80019499  0.41107573  0.88035677     1.03600
O345        O  0.79715546  0.41224012  0.84097705    -0.76900
O346        O  0.77029907  0.42816882  0.76465527    -0.77100
C347        C  0.74736912  0.40648418  0.76468858     1.03600
O348        O  0.73461968  0.48822166  0.75843464    -0.84400
O349        O  0.70629973  0.51592857  0.82883943    -0.81400
C350        C  0.70276089  0.52382762  0.86710605     0.99100
O351        O  0.71510299  0.50375192  0.89532607    -0.81500
O352        O  0.77747702  0.51514866  0.89145499    -0.84100
C353        C  0.80444613  0.51451644  0.87696619     1.03600
O354        O  0.81237025  0.48912350  0.85154733    -0.76900
O355        O  0.77984394  0.50674784  0.78000788    -0.77100
C356        C  0.75707613  0.51046777  0.75575193     1.03500
Cr357      Cr  0.71700456  0.46474134  0.80974766     1.93700
Cr358      Cr  0.75166000  0.46943959  0.89355580     1.93200
Cr359      Cr  0.78719357  0.45948369  0.81126069     1.39100
O360        O  0.75192005  0.46450984  0.83837591    -1.22100
C361        C  0.75046901  0.70344074  0.52608375     0.04100
C362        C  0.72315097  0.71790503  0.50898292    -0.12100
C363        C  0.72421692  0.74312819  0.47525908     0.01600
C364        C  0.75281471  0.75253870  0.45782224    -0.10600
C365        C  0.78017561  0.73821282  0.47491998     0.04100
C366        C  0.77892973  0.71405741  0.50945439    -0.10000
H367        H  0.70127577  0.71065365  0.52303258     0.09700
H368        H  0.75387195  0.77217324  0.43187899     0.07200
H369        H  0.80005764  0.70324492  0.52310815     0.07100
C370        C  0.74691517  0.19253316  0.55816275     0.04100
C371        C  0.71917924  0.17508543  0.54665532    -0.12100
C372        C  0.71915321  0.14467693  0.51867346     0.01600
C373        C  0.74722480  0.13247982  0.50160867    -0.10600
C374        C  0.77508766  0.14893734  0.51353893     0.04100
C375        C  0.77484188  0.17942872  0.54118591    -0.10000
H376        H  0.69775743  0.18437708  0.56066154     0.09700
H377        H  0.74760402  0.10974448  0.47908679     0.07200
H378        H  0.79639387  0.19234708  0.55013929     0.07100
O379        O  0.52406773  0.00886494  0.29367726    -0.84400
O380        O  0.55462276  0.98169969  0.36286070    -0.81400
C381        C  0.54480673  0.00009713  0.39411349     0.99100
O382        O  0.51782385  0.99494502  0.40756963    -0.81500
O383        O  0.95920765  0.97722423  0.40479061    -0.84100
C384        C  0.94664804  0.00271141  0.38300739     1.03600
O385        O  0.95104222  0.00389203  0.34395681    -0.76900
O386        O  0.97948484  0.99361859  0.26783905    -0.77100
C387        C  0.50181874  0.01598755  0.26948258     1.03600
O388        O  0.51846021  0.93443450  0.26117276    -0.84400
O389        O  0.54489746  0.90674480  0.33347641    -0.81400
C390        C  0.54818544  0.89875955  0.37177174     0.99100
O391        O  0.53431432  0.91765139  0.39944443    -0.81500
O392        O  0.97543818  0.90035397  0.38967809    -0.84100
C393        C  0.94903223  0.89859331  0.37332558     1.03600
O394        O  0.93955494  0.92468235  0.34957888    -0.76900
O395        O  0.97226206  0.91397448  0.27724907    -0.77100
C396        C  0.99541405  0.91182790  0.25358445     1.03500
Cr397      Cr  0.53269231  0.95771703  0.31484873     1.93700
Cr398      Cr  0.49549191  0.94759607  0.39573052     1.93200
Cr399      Cr  0.96328247  0.95875384  0.31180689     1.39100
O400        O  0.99835402  0.95438814  0.33969914    -1.22100
C401        C  0.83609598  0.07643567  0.49012763    -0.27300
C402        C  0.85684510  0.09673089  0.46535710     0.06400
C403        C  0.85167218  0.13528868  0.45868558     0.26000
C404        C  0.82559935  0.15284466  0.47576323    -0.11700
C405        C  0.80429365  0.13198423  0.49910067    -0.25700
C406        C  0.81009649  0.09380928  0.50685706     0.36800
C407        C  0.88250436  0.07649810  0.44474382     0.06400
F408        F  0.87166638  0.15576983  0.43547686    -0.19500
H409        H  0.82149758  0.18233570  0.46966498     0.16200
F410        F  0.79030548  0.07318261  0.53024706    -0.23200
H411        H  0.83950957  0.04669269  0.49541641     0.18000
C412        C  0.90186744  0.05266495  0.46807523     0.26000
C413        C  0.92323112  0.02970859  0.44775999    -0.11700
C414        C  0.92569232  0.02985891  0.40374748    -0.25700
C415        C  0.90699123  0.05473337  0.38048233     0.36900
C416        C  0.88566074  0.07784735  0.40094001    -0.27400
F417        F  0.89974011  0.05110019  0.51053584    -0.19500
H418        H  0.93744189  0.01118494  0.46661054     0.16200
F419        F  0.90829295  0.05569635  0.33795354    -0.23200
H420        H  0.87062055  0.09561746  0.38238139     0.18000
C421        C  0.58283289  0.06331984  0.47553124    -0.27300
C422        C  0.61151332  0.06927799  0.45649353     0.06400
C423        C  0.61704189  0.05488125  0.41633105     0.26000
C424        C  0.59470048  0.03378221  0.39601151    -0.11700
C425        C  0.56632325  0.02616926  0.41534704    -0.25700
C426        C  0.56029088  0.04179668  0.45519314     0.36800
C427        C  0.63676816  0.08835954  0.47873826     0.06400
F428        F  0.64443840  0.06072893  0.39701618    -0.19500
H429        H  0.60003925  0.02265560  0.36525493     0.16200
F430        F  0.53327538  0.03520787  0.47514059    -0.23200
H431        H  0.57833041  0.07428255  0.50661657     0.18000
C432        C  0.63653345  0.12735862  0.48456955     0.26000
C433        C  0.66308779  0.14556685  0.49878939    -0.11700
C434        C  0.69011848  0.12504564  0.50759459    -0.25700
C435        C  0.68945751  0.08562969  0.50411937     0.36900
C436        C  0.66311753  0.06766956  0.48948206    -0.27400
F437        F  0.61128304  0.14795472  0.47424730    -0.19500
H438        H  0.66289601  0.17586013  0.50121053     0.16200
F439        F  0.71432030  0.06434029  0.51453712    -0.23200
H440        H  0.66351806  0.03750102  0.48535957     0.18000
C441        C  0.84395509  0.76513556  0.40065647    -0.27300
C442        C  0.86267045  0.78677946  0.42710834     0.06400
C443        C  0.85553842  0.78924435  0.47003988     0.26000
C444        C  0.82950475  0.77141839  0.48582726    -0.11700
C445        C  0.80998106  0.75145585  0.45898536    -0.25700
C446        C  0.81771442  0.74759226  0.41644125     0.36800
C447        C  0.88666897  0.81111317  0.40908940     0.06400
F448        F  0.87224647  0.81140862  0.49601955    -0.19500
H449        H  0.82356648  0.77503668  0.51856173     0.16200
F450        F  0.79942466  0.72775802  0.39007265    -0.23200
H451        H  0.84906331  0.76305890  0.36749979     0.18000
C452        C  0.91662350  0.81187238  0.42571182     0.26000
C453        C  0.93726482  0.83960306  0.41294157    -0.11700
C454        C  0.92831432  0.86697094  0.38343842    -0.25700
C455        C  0.89886636  0.86453068  0.36497925     0.36900
C456        C  0.87837945  0.83685118  0.37776858    -0.27400
F457        F  0.92561996  0.78635125  0.45494981    -0.19500
H458        H  0.95992515  0.84028568  0.42709577     0.16200
F459        F  0.88927839  0.88958653  0.33558719    -0.23200
H460        H  0.85537720  0.83668412  0.36460367     0.18000
C461        C  0.64283458  0.76155141  0.43644749    -0.27300
C462        C  0.64347756  0.80058739  0.43131666     0.06400
C463        C  0.67008968  0.82054071  0.44185494     0.26000
C464        C  0.69610695  0.80154319  0.45627396    -0.11700
C465        C  0.69598655  0.76234584  0.46052057    -0.25700
C466        C  0.66897684  0.74240075  0.45097688     0.36800
C467        C  0.61682001  0.82087000  0.41402387     0.06400
F468        F  0.67080366  0.85847107  0.43826331    -0.19500
H469        H  0.71639876  0.81751859  0.46436349     0.16200
F470        F  0.66819649  0.70446837  0.45437634    -0.23200
H471        H  0.62232871  0.74596131  0.42844094     0.18000
C472        C  0.61800810  0.83543750  0.37317315     0.26000
C473        C  0.59462854  0.85913817  0.35864408    -0.11700
C474        C  0.57005089  0.86915379  0.38499723    -0.25700
C475        C  0.56832894  0.85315409  0.42543260     0.36900
C476        C  0.59155790  0.82904273  0.43966154    -0.27400
F477        F  0.64242848  0.82783030  0.34801064    -0.19500
H478        H  0.59656990  0.87112123  0.32753479     0.16200
F479        F  0.54466048  0.86152645  0.45162371    -0.23200
H480        H  0.59051722  0.81800279  0.47130330     0.18000
C481        C  0.76626280  0.25254536  0.65269938    -0.27300
C482        C  0.74531229  0.28234176  0.64811939     0.06400
C483        C  0.72502051  0.28264002  0.61375985     0.26000
C484        C  0.72569474  0.25340540  0.58456726    -0.11700
C485        C  0.74665748  0.22352234  0.58910201    -0.25700
C486        C  0.76687169  0.22323805  0.62365535     0.36800
C487        C  0.74557126  0.31356368  0.67856637     0.06400
F488        F  0.70520065  0.31171886  0.60780356    -0.19500
H489        H  0.71010352  0.25432696  0.55804729     0.16200
F490        F  0.78659158  0.19412923  0.63004367    -0.23200
H491        H  0.78196226  0.25183890  0.67911513     0.18000
C492        C  0.71903817  0.32347072  0.70123403     0.26000
C493        C  0.71977844  0.35337731  0.72963354    -0.11700
C494        C  0.74693898  0.37399905  0.73568260    -0.25700
C495        C  0.77358308  0.36356342  0.71316192     0.36900
C496        C  0.77280773  0.33357531  0.68510157    -0.27400
F497        F  0.69259147  0.30383283  0.69640367    -0.19500
H498        H  0.69901816  0.36056638  0.74660730     0.16200
F499        F  0.80052397  0.38216889  0.71814850    -0.23200
H500        H  0.79346957  0.32621016  0.66796571     0.18000
C501        C  0.77943210  0.59148592  0.68480332    -0.27300
C502        C  0.75231732  0.59634225  0.66120465     0.06400
C503        C  0.72700105  0.57309437  0.66939675     0.26000
C504        C  0.72905669  0.54524198  0.69987269    -0.11700
C505        C  0.75613935  0.54019693  0.72344962    -0.25700
C506        C  0.78129381  0.56398363  0.71600911     0.36800
C507        C  0.75082262  0.62475574  0.62731218     0.06400
F508        F  0.69997216  0.57764166  0.64852411    -0.19500
H509        H  0.70911596  0.52780911  0.70524176     0.16200
F510        F  0.80772984  0.56061229  0.73847239    -0.23200
H511        H  0.79942046  0.60860724  0.67866570     0.18000
C512        C  0.76257702  0.66112269  0.63318918     0.26000
C513        C  0.76226504  0.68684611  0.60012507    -0.11700
C514        C  0.74942910  0.67703390  0.56133061    -0.25700
C515        C  0.73675289  0.64136553  0.55575182     0.36900
C516        C  0.73795150  0.61523861  0.58824764    -0.27400
F517        F  0.77392908  0.67199807  0.67094094    -0.19500
H518        H  0.77184830  0.71449024  0.60477313     0.16200
F519        F  0.72421071  0.63142521  0.51837028    -0.23200
H520        H  0.72932831  0.58730910  0.58253241     0.18000
C521        C  0.57764307  0.35523039  0.98035065    -0.27300
C522        C  0.60396470  0.33566519  0.96705815     0.06400
C523        C  0.60563642  0.29666276  0.97337724     0.26000
C524        C  0.58064107  0.27749614  0.99067277    -0.11700
C525        C  0.55367171  0.29688766  0.00206778    -0.25700
C526        C  0.55275780  0.33621414  0.99766636     0.36800
C527        C  0.62882344  0.35617232  0.94524504     0.06400
F528        F  0.63076635  0.27684542  0.96097142    -0.19500
H529        H  0.58193391  0.24726230  0.99360738     0.16200
F530        F  0.52782109  0.35641510  0.01010144    -0.23200
H531        H  0.57623287  0.38543835  0.97692697     0.18000
C532        C  0.62164759  0.38075206  0.91210188     0.26000
C533        C  0.64474904  0.40136475  0.89271376    -0.11700
C534        C  0.67557667  0.39794151  0.90570463    -0.25700
C535        C  0.68295022  0.37246072  0.93802589     0.36900
C536        C  0.65968232  0.35188804  0.95766345    -0.27400
F537        F  0.59225883  0.38466990  0.89814098    -0.19500
H538        H  0.63829352  0.42047033  0.86773259     0.16200
F539        F  0.71249824  0.36747791  0.95081777    -0.23200
H540        H  0.66570589  0.33313159  0.98314530     0.18000
C541        C  0.89889002  0.28037749  0.94782546    -0.27300
C542        C  0.88808338  0.31509620  0.96274489     0.06400
C543        C  0.90272280  0.33179406  0.99737210     0.26000
C544        C  0.92859405  0.31485738  0.01529516    -0.11700
C545        C  0.94003524  0.28099936  0.99928448    -0.25700
C546        C  0.92473632  0.26334796  0.96600947     0.36800
C547        C  0.86324460  0.33535035  0.94031248     0.06400
F548        F  0.89325870  0.36563841  0.01213391    -0.19500
H549        H  0.94050483  0.32889460  0.04065569     0.16200
F550        F  0.93574291  0.23076397  0.94979981    -0.23200
H551        H  0.88779784  0.26703026  0.92135126     0.18000
C552        C  0.86587974  0.34307492  0.89718458     0.26000
C553        C  0.84423440  0.36608150  0.87721464    -0.11700
C554        C  0.81989702  0.38213395  0.90001231    -0.25700
C555        C  0.81645350  0.37288514  0.94271426     0.36900
C556        C  0.83796823  0.34966018  0.96256620    -0.27400
F557        F  0.89047616  0.33046207  0.87499036    -0.19500
H558        H  0.84747850  0.37295594  0.84441354     0.16200
F559        F  0.79263106  0.38682397  0.96550105    -0.23200
H560        H  0.83534288  0.34357518  0.99566855     0.18000
C561        C  0.98841334  0.13336940  0.11221145    -0.27300
C562        C  0.00482540  0.13788796  0.14983520     0.06400
C563        C  0.52203299  0.17085899  0.15564609     0.26000
C564        C  0.52148732  0.19935979  0.12540499    -0.11700
C565        C  0.50435327  0.19518573  0.08828026    -0.25700
C566        C  0.98772078  0.16184786  0.08214476     0.36800
C567        C  0.00436228  0.10764790  0.18182949     0.06400
F568        F  0.53778853  0.17645269  0.19188946    -0.19500
H569        H  0.53367734  0.22515494  0.13156181     0.16200
F570        F  0.97188078  0.15616791  0.04598009    -0.23200
H571        H  0.97617758  0.10761411  0.10601899     0.18000
C572        C  0.97634980  0.09162148  0.19447825     0.26000
C573        C  0.97611880  0.06177271  0.22286492    -0.11700
C574        C  0.50306797  0.04841314  0.24045681    -0.25700
C575        C  0.53129557  0.06440176  0.22841895     0.36900
C576        C  0.53193810  0.09369704  0.19916319    -0.27400
F577        F  0.94912335  0.10505112  0.17966925    -0.19500
H578        H  0.95421449  0.04987596  0.23184842     0.16200
F579        F  0.55836022  0.05083263  0.24357487    -0.23200
H580        H  0.55393333  0.10488751  0.18952369     0.18000
C581        C  0.59919638  0.65965550  0.90075315    -0.27300
C582        C  0.61260017  0.63084274  0.92494751     0.06400
C583        C  0.60064263  0.62333367  0.96515545     0.26000
C584        C  0.57556646  0.64375834  0.98028979    -0.11700
C585        C  0.56166055  0.67148294  0.95550943    -0.25700
C586        C  0.57362983  0.67955879  0.91569670     0.36800
C587        C  0.63780814  0.60725668  0.90764292     0.06400
F588        F  0.61190048  0.59469872  0.98882077    -0.19500
H589        H  0.56596821  0.63667173  0.01062516     0.16200
F590        F  0.55999152  0.70578859  0.89089593    -0.23200
H591        H  0.60812756  0.66620747  0.86991943     0.18000
C592        C  0.63553318  0.59141006  0.86730083     0.26000
C593        C  0.65778723  0.56588131  0.85331534    -0.11700
C594        C  0.68227898  0.55507946  0.87954260    -0.25700
C595        C  0.68523408  0.57208584  0.91915753     0.36900
C596        C  0.66339130  0.59820729  0.93273578    -0.27400
F597        F  0.61080671  0.59860580  0.84243337    -0.19500
H598        H  0.65488968  0.55298518  0.82282367     0.16200
F599        F  0.70890975  0.56299534  0.94515397    -0.23200
H600        H  0.66604146  0.61066981  0.96349185     0.18000
C601        C  0.92417825  0.59797751  0.95421301    -0.27300
C602        C  0.89915889  0.61515024  0.93393928     0.06400
C603        C  0.89898403  0.65419704  0.92797756     0.26000
C604        C  0.92406461  0.67560422  0.94133354    -0.11700
C605        C  0.94948671  0.65813115  0.96042177    -0.25700
C606        C  0.94915639  0.61925581  0.96746269     0.36800
C607        C  0.87415962  0.59156202  0.91759765     0.06400
F608        F  0.87523802  0.67124900  0.90772027    -0.19500
H609        H  0.92410723  0.70557051  0.93568887     0.16200
F610        F  0.97305811  0.60194394  0.98715235    -0.23200
H611        H  0.92443895  0.56793449  0.95935752     0.18000
C612        C  0.88063174  0.56429693  0.88719118     0.26000
C613        C  0.85762913  0.54006861  0.87367551    -0.11700
C614        C  0.82772082  0.54227293  0.89045895    -0.25700
C615        C  0.82114840  0.57017884  0.92050807     0.36900
C616        C  0.84426110  0.59473650  0.93374560    -0.27400
F617        F  0.90932048  0.56104502  0.87068386    -0.19500
H618        H  0.86348047  0.51914576  0.85038212     0.16200
F619        F  0.79272461  0.57331777  0.93777601    -0.23200
H620        H  0.83908060  0.61556850  0.95743540     0.18000
C621        C  0.98455792  0.77140718  0.12062985    -0.27300
C622        C  0.99698723  0.80732457  0.11493681     0.06400
C623        C  0.51291447  0.81779590  0.07614045     0.26000
C624        C  0.51433822  0.79076742  0.04443115    -0.11700
C625        C  0.00047604  0.75362119  0.05037724    -0.25700
C626        C  0.98615603  0.74478037  0.08862365     0.36800
C627        C  0.99605305  0.83481973  0.14970109     0.06400
F628        F  0.52457560  0.85240238  0.06864386    -0.19500
H629        H  0.52497845  0.79779302  0.01478586     0.16200
F630        F  0.97451146  0.71004954  0.09546632    -0.23200
H631        H  0.97410696  0.76372977  0.15019288     0.18000
C632        C  0.96868489  0.84194960  0.17191370     0.26000
C633        C  0.96859243  0.86691529  0.20571472    -0.11700
C634        C  0.99568182  0.88546049  0.21773509    -0.25700
C635        C  0.52375865  0.88180444  0.19449976     0.36900
C636        C  0.52427190  0.85666003  0.16094896    -0.27400
F637        F  0.94192726  0.82529272  0.16050080    -0.19500
H638        H  0.94722730  0.87192140  0.22227824     0.16200
F639        F  0.55022928  0.89965604  0.20481403    -0.23200
H640        H  0.54577346  0.85172331  0.14470081     0.18000
loop_ 
_geom_bond_atom_site_label_1 
_geom_bond_atom_site_label_2 
_geom_bond_distance 
_geom_bond_site_symmetry_2 
_ccdc_geom_bond_type 
C1            C6   1.406   1_554  A
C1          C322   1.404   1_455  A
C1          C625   1.475       .  S
C2            C3   1.401   1_554  A
C2          C321   1.406       .  A
C2            H7   1.084       .  S
C3            C4   1.399       .  A
C3          C285   1.473       .  S
C4          C325   1.397       .  A
C4            H8   1.085       .  S
C5            C6   1.401       .  A
C5          C324   1.398       .  A
C5          C265   1.469       .  S
C6            H9   1.084   1_556  S
C10          C15   1.409       .  A
C10         C331   1.407   1_455  A
C10         C245   1.483       .  S
C11          C12   1.397       .  A
C11         C330   1.407       .  A
C11          H16   1.083       .  S
C12         C333   1.396       .  A
C12         C225   1.469       .  S
C13          C14   1.402   1_655  A
C13         C332   1.395       .  A
C13          H17   1.084   1_554  S
C14          C15   1.407       .  A
C14         C205   1.485       .  S
C15          H18   1.084       .  S
O19         Cr37   1.983       .  S
O19          C27   1.262       .  A
O20         Cr37   1.991       .  S
O20          C21   1.262       .  A
C21         C214   1.480       .  S
C21          O22   1.260       .  A
O22         Cr38   1.982       .  S
O23         Cr38   2.001       .  S
O23          C24   1.266       .  A
C24         C234   1.476       .  S
C24          O25   1.262       .  A
O25         Cr39   1.975       .  S
O26         Cr39   2.000       .  S
O26          C27   1.265       .  A
C27         C174   1.482       .  S
O28         Cr37   1.993       .  S
O28          C36   1.264       .  A
O29         Cr37   1.978       .  S
O29          C30   1.262       .  A
C30         C274   1.477       .  S
C30          O31   1.266       .  A
O31         Cr38   2.002       .  S
O32         Cr38   1.984       .  S
O32          C33   1.260       .  A
C33         C294   1.484       .  S
C33          O34   1.263       .  A
O34         Cr39   1.996       .  S
O35         Cr39   1.980       .  S
O35          C36   1.261       .  A
C36         C185   1.477       .  S
Cr37         O40   1.769       .  S
Cr38         O40   1.767       .  S
Cr39         O40   1.769       .  S
C41          C42   1.401       .  A
C41          C46   1.400       .  A
C41         C194   1.466       .  S
C42          C43   1.401       .  A
C42          H47   1.084       .  S
C43          C44   1.404       .  A
C43         C145   1.477       .  S
C44          C45   1.400       .  A
C44          H48   1.084       .  S
C45          C46   1.399       .  A
C45         C125   1.472       .  S
C46          H49   1.084       .  S
C50          C51   1.407       .  A
C50          C55   1.408       .  A
C50         C165   1.482       .  S
C51          C52   1.400       .  A
C51          H56   1.084       .  S
C52          C53   1.400       .  A
C52         C114   1.476       .  S
C53          C54   1.401       .  A
C53          H57   1.084       .  S
C54          C55   1.402       .  A
C54          C85   1.477       .  S
C55          H58   1.084       .  S
O59         Cr77   1.977   1_545  S
O59          C67   1.261       .  A
O60         Cr77   1.996       .  S
O60          C61   1.265       .  A
C61         C105   1.482   1_565  S
C61          O62   1.263       .  A
O62         Cr78   1.988   1_455  S
O63        Cr398   2.000       .  S
O63          C64   1.265   1_565  A
C64          C94   1.482       .  S
C64          O65   1.260       .  A
O65         Cr79   1.979   1_545  S
O66         Cr79   2.003       .  S
O66         C387   1.265   1_565  A
C67         C254   1.481       .  S
C67         O386   1.266   1_445  A
O68         Cr77   1.997       .  S
O68         C396   1.263   1_455  A
O69         Cr77   1.981       .  S
O69          C70   1.261       .  A
C70         C154   1.476       .  S
C70          O71   1.264       .  A
O71         Cr78   1.997   1_455  S
O72        Cr398   1.980       .  S
O72          C73   1.261       .  A
C73         C134   1.483       .  S
C73          O74   1.265       .  A
O74         Cr79   2.002       .  S
O75         Cr79   1.976       .  S
O75          C76   1.261       .  A
C76         C314   1.482       .  S
C76         O388   1.264       .  A
Cr77        O400   1.768   1_455  S
Cr78        O383   1.999       .  S
Cr78        O392   1.980       .  S
Cr78        O400   1.771       .  S
Cr79         O80   1.770       .  S
O80        Cr397   1.768       .  S
O80        Cr398   1.773       .  S
C81          C82   1.403       .  A
C81          C86   1.394       .  A
C81          H91   1.083       .  S
C82          C83   1.407       .  A
C82          C87   1.479       .  S
C83          C84   1.401       .  A
C83          F88   1.357       .  S
C84          C85   1.404       .  A
C84          H89   1.083       .  S
C85          C86   1.405       .  A
C86          F90   1.358       .  S
C87          C92   1.404       .  A
C87          C96   1.404       .  A
C92          C93   1.395       .  A
C92          F97   1.358       .  S
C93          C94   1.408       .  A
C93          H98   1.083       .  S
C94          C95   1.409       .  A
C95          C96   1.399       .  A
C95          F99   1.357       .  S
C96         H100   1.083       .  S
C101        C102   1.406       .  A
C101        C106   1.404       .  A
C101        H111   1.083       .  S
C102        C103   1.404       .  A
C102        C107   1.480       .  S
C103        C104   1.390       .  A
C103        F108   1.358       .  S
C104        C105   1.406       .  A
C104        H109   1.083       .  S
C105        C106   1.410       .  A
C106        F110   1.357       .  S
C107        C112   1.407       .  A
C107        C116   1.404       .  A
C112        C113   1.395       .  A
C112        F117   1.358       .  S
C113        C114   1.402       .  A
C113        H118   1.084       .  S
C114        C115   1.406       .  A
C115        C116   1.399       .  A
C115        F119   1.357       .  S
C116        H120   1.083       .  S
C121        C122   1.405       .  A
C121        C126   1.398       .  A
C121        H131   1.083       .  S
C122        C123   1.406       .  A
C122        C127   1.476       .  S
C123        C124   1.395       .  A
C123        F128   1.357       .  S
C124        C125   1.401       .  A
C124        H129   1.083       .  S
C125        C126   1.405       .  A
C126        F130   1.358       .  S
C127        C132   1.404       .  A
C127        C136   1.401       .  A
C132        C133   1.399       .  A
C132        F137   1.358       .  S
C133        C134   1.407       .  A
C133        H138   1.083       .  S
C134        C135   1.411       .  A
C135        C136   1.395       .  A
C135        F139   1.357       .  S
C136        H140   1.083       .  S
C141        C142   1.402       .  A
C141        C146   1.401       .  A
C141        H151   1.083       .  S
C142        C143   1.401       .  A
C142        C147   1.469       .  S
C143        C144   1.392       .  A
C143        F148   1.358       .  S
C144        C145   1.404       .  A
C144        H149   1.083       .  S
C145        C146   1.408       .  A
C146        F150   1.357       .  S
C147        C152   1.403       .  A
C147        C156   1.399       .  A
C152        C153   1.396       .  A
C152        F157   1.358       .  S
C153        C154   1.404       .  A
C153        H158   1.083       .  S
C154        C155   1.410       .  A
C155        C156   1.397       .  A
C155        F159   1.358       .  S
C156        H160   1.083       .  S
C161        C162   1.403       .  A
C161        C166   1.398       .  A
C161        H171   1.083       .  S
C162        C163   1.404       .  A
C162        C167   1.476       .  S
C163        C164   1.396       .  A
C163        F168   1.358       .  S
C164        C165   1.405       .  A
C164        H169   1.083       .  S
C165        C166   1.408       .  A
C166        F170   1.357       .  S
C167        C172   1.405       .  A
C167        C176   1.400       .  A
C172        C173   1.399       .  A
C172        F177   1.357       .  S
C173        C174   1.406       .  A
C173        H178   1.082       .  S
C174        C175   1.411       .  A
C175        C176   1.395       .  A
C175        F179   1.358       .  S
C176        H180   1.083       .  S
C181        C182   1.407       .  A
C181        C186   1.398       .  A
C181        H191   1.082       .  S
C182        C183   1.406       .  A
C182        C187   1.482       .  S
C183        C184   1.391       .  A
C183        F188   1.358       .  S
C184        C185   1.406       .  A
C184        H189   1.083       .  S
C185        C186   1.407       .  A
C186        F190   1.357       .  S
C187        C192   1.409       .  A
C187        C196   1.407       .  A
C192        C193   1.397       .  A
C192        F197   1.358       .  S
C193        C194   1.401       .  A
C193        H198   1.082       .  S
C194        C195   1.400       .  A
C195        C196   1.393       .  A
C195        F199   1.358       .  S
C196        H200   1.081       .  S
C201        C202   1.403       .  A
C201        C206   1.393       .  A
C201        H211   1.084       .  S
C202        C203   1.407       .  A
C202        C207   1.481       .  S
C203        C204   1.400       .  A
C203        F208   1.357       .  S
C204        C205   1.406   1_556  A
C204        H209   1.083       .  S
C205        C206   1.409   1_554  A
C206        F210   1.358   1_556  S
C207        C212   1.406       .  A
C207        C216   1.405       .  A
C212        C213   1.392       .  A
C212        F217   1.358       .  S
C213        C214   1.406       .  A
C213        H218   1.083       .  S
C214        C215   1.408       .  A
C215        C216   1.400       .  A
C215        F219   1.357       .  S
C216        H220   1.083       .  S
C221        C222   1.405       .  A
C221        C226   1.399       .  A
C221        H231   1.083       .  S
C222        C223   1.407       .  A
C222        C227   1.477       .  S
C223        C224   1.395   1_556  A
C223        F228   1.358   1_556  S
C224        C225   1.401       .  A
C224        H229   1.084       .  S
C225        C226   1.403   1_554  A
C226        F230   1.357       .  S
C227        C232   1.406       .  A
C227        C236   1.403       .  A
C232        C233   1.396       .  A
C232        F237   1.358       .  S
C233        C234   1.404       .  A
C233        H238   1.083       .  S
C234        C235   1.408       .  A
C235        C236   1.397       .  A
C235        F239   1.358       .  S
C236        H240   1.083       .  S
C241        C242   1.405       .  A
C241        C246   1.396       .  A
C241        H251   1.082       .  S
C242        C563   1.407       .  A
C242        C247   1.484       .  S
C243        C244   1.400       .  A
C243        C562   1.407       .  A
C243        F248   1.357       .  S
C244        C245   1.406       .  A
C244        H249   1.082       .  S
C245        C566   1.406   1_455  A
C246        C565   1.406       .  A
C246        F250   1.358       .  S
C247        C252   1.407       .  A
C247        C576   1.405       .  A
C252        C253   1.397       .  A
C252        F257   1.358       .  S
C253        C574   1.405       .  A
C253        H258   1.083       .  S
C254        C255   1.409       .  A
C254        C573   1.405   1_455  A
C255        C256   1.400       .  A
C255        F259   1.357       .  S
C256        C567   1.405       .  A
C256        H260   1.082       .  S
C261        C262   1.407       .  A
C261        C266   1.399       .  A
C261        H271   1.083       .  S
C262        C263   1.410       .  A
C262        C267   1.486       .  S
C263        C264   1.395       .  A
C263        F268   1.357       .  S
C264        C265   1.399       .  A
C264        H269   1.084   1_556  S
C265        C266   1.403       .  A
C266        F270   1.357       .  S
C267        C272   1.409       .  A
C267        C276   1.405       .  A
C272        C273   1.398       .  A
C272        F277   1.357       .  S
C273        C274   1.404       .  A
C273        H278   1.083       .  S
C274        C275   1.407       .  A
C275        C276   1.396       .  A
C275        F279   1.358       .  S
C276        H280   1.083       .  S
C281        C282   1.402       .  A
C281        C286   1.393       .  A
C281        H291   1.084       .  S
C282        C283   1.406       .  A
C282        C287   1.474       .  S
C283        C284   1.401       .  A
C283        F288   1.357       .  S
C284        C285   1.403       .  A
C284        H289   1.083       .  S
C285        C286   1.405       .  A
C286        F290   1.358       .  S
C287        C292   1.402       .  A
C287        C296   1.402       .  A
C292        C293   1.394       .  A
C292        F297   1.358       .  S
C293        C294   1.408       .  A
C293        H298   1.083       .  S
C294        C295   1.411       .  A
C295        C296   1.401       .  A
C295        F299   1.357       .  S
C296        H300   1.083       .  S
C301        C302   1.405       .  A
C301        C306   1.395       .  A
C301        H311   1.082       .  S
C302        C623   1.408       .  A
C302        C307   1.482       .  S
C303        C304   1.397       .  A
C303        C622   1.408   1_455  A
C303        F308   1.357       .  S
C304        C625   1.402       .  A
C304        H309   1.082       .  S
C305        C306   1.405       .  A
C305        C624   1.403       .  A
C305        C321   1.476       .  S
C306        F310   1.358       .  S
C307        C312   1.407       .  A
C307        C636   1.403       .  A
C312        C313   1.397       .  A
C312        F317   1.358       .  S
C313        C314   1.406       .  A
C313        H318   1.083       .  S
C314        C635   1.410       .  A
C315        C316   1.394       .  A
C315        C634   1.410   1_455  A
C315        F319   1.358       .  S
C316        C627   1.402   1_455  A
C316        H320   1.083       .  S
C321        C326   1.406   1_554  A
C322        C323   1.399   1_554  A
C322        H327   1.084       .  S
C323        C324   1.399   1_655  A
C323        C605   1.471       .  S
C324        H328   1.085       .  S
C325        C326   1.401       .  A
C325        C585   1.468       .  S
C326        H329   1.084   1_556  S
C330        C335   1.408       .  A
C330        C565   1.483       .  S
C331        C332   1.397       .  A
C331        H336   1.083       .  S
C332        C545   1.468   1_554  S
C333        C334   1.402       .  A
C333        H337   1.084   1_554  S
C334        C335   1.407       .  A
C334        C525   1.485       .  S
C335        H338   1.084       .  S
O339       Cr357   1.983       .  S
O339        C347   1.262       .  A
O340       Cr357   1.991       .  S
O340        C341   1.262       .  A
C341        C534   1.480       .  S
C341        O342   1.260       .  A
O342       Cr358   1.982       .  S
O343       Cr358   1.999       .  S
O343        C344   1.266       .  A
C344        C554   1.476       .  S
C344        O345   1.263       .  A
O345       Cr359   1.977       .  S
O346       Cr359   2.000       .  S
O346        C347   1.264       .  A
C347        C494   1.483       .  S
O348       Cr357   1.992       .  S
O348        C356   1.264       .  A
O349       Cr357   1.978       .  S
O349        C350   1.262       .  A
C350        C594   1.477       .  S
C350        O351   1.266       .  A
O351       Cr358   2.001       .  S
O352       Cr358   1.984       .  S
O352        C353   1.260       .  A
C353        C614   1.482       .  S
C353        O354   1.263       .  A
O354       Cr359   1.993       .  S
O355       Cr359   1.981       .  S
O355        C356   1.261       .  A
C356        C505   1.477       .  S
Cr357       O360   1.769       .  S
Cr358       O360   1.768       .  S
Cr359       O360   1.769       .  S
C361        C362   1.401       .  A
C361        C366   1.400       .  A
C361        C514   1.466       .  S
C362        C363   1.402       .  A
C362        H367   1.084       .  S
C363        C364   1.404       .  A
C363        C465   1.478       .  S
C364        C365   1.401       .  A
C364        H368   1.084       .  S
C365        C366   1.398       .  A
C365        C445   1.472       .  S
C366        H369   1.084       .  S
C370        C371   1.407       .  A
C370        C375   1.407       .  A
C370        C485   1.482       .  S
C371        C372   1.405       .  A
C371        H376   1.083       .  S
C372        C373   1.403       .  A
C372        C434   1.488       .  S
C373        C374   1.400       .  A
C373        H377   1.083       .  S
C374        C375   1.400       .  A
C374        C405   1.477       .  S
C375        H378   1.084       .  S
O379       Cr397   1.978   1_545  S
O379        C387   1.260       .  A
O380       Cr397   1.997       .  S
O380        C381   1.267   1_565  A
C381        C425   1.485       .  S
C381        O382   1.263   1_545  A
O382       Cr398   1.988       .  S
O383        C384   1.264   1_565  A
C384        C414   1.482       .  S
C384        O385   1.260       .  A
O385       Cr399   1.980   1_545  S
O386       Cr399   2.003       .  S
C387        C574   1.481       .  S
O388       Cr397   2.001       .  S
O389       Cr397   1.981       .  S
O389        C390   1.261       .  A
C390        C474   1.477       .  S
C390        O391   1.262       .  A
O391       Cr398   1.995       .  S
O392        C393   1.261       .  A
C393        C454   1.482       .  S
C393        O394   1.266       .  A
O394       Cr399   2.000       .  S
O395       Cr399   1.978       .  S
O395        C396   1.260       .  A
C396        C634   1.481       .  S
Cr399       O400   1.769       .  S
C401        C402   1.403       .  A
C401        C406   1.393       .  A
C401        H411   1.083       .  S
C402        C403   1.408       .  A
C402        C407   1.480       .  S
C403        C404   1.402       .  A
C403        F408   1.357       .  S
C404        C405   1.404       .  A
C404        H409   1.083       .  S
C405        C406   1.405       .  A
C406        F410   1.358       .  S
C407        C412   1.404       .  A
C407        C416   1.404       .  A
C412        C413   1.395       .  A
C412        F417   1.358       .  S
C413        C414   1.407       .  A
C413        H418   1.083       .  S
C414        C415   1.409       .  A
C415        C416   1.399       .  A
C415        F419   1.357       .  S
C416        H420   1.083       .  S
C421        C422   1.404       .  A
C421        C426   1.405       .  A
C421        H431   1.083       .  S
C422        C423   1.400       .  A
C422        C427   1.475       .  S
C423        C424   1.391       .  A
C423        F428   1.358       .  S
C424        C425   1.407       .  A
C424        H429   1.083       .  S
C425        C426   1.412       .  A
C426        F430   1.357       .  S
C427        C432   1.403       .  A
C427        C436   1.401       .  A
C432        C433   1.402       .  A
C432        F437   1.357       .  S
C433        C434   1.408       .  A
C433        H438   1.083       .  S
C434        C435   1.410       .  A
C435        C436   1.394       .  A
C435        F439   1.358       .  S
C436        H440   1.084       .  S
C441        C442   1.405       .  A
C441        C446   1.397       .  A
C441        H451   1.083       .  S
C442        C443   1.406       .  A
C442        C447   1.476       .  S
C443        C444   1.395       .  A
C443        F448   1.357       .  S
C444        C445   1.401       .  A
C444        H449   1.083       .  S
C445        C446   1.404       .  A
C446        F450   1.358       .  S
C447        C452   1.405       .  A
C447        C456   1.401       .  A
C452        C453   1.399       .  A
C452        F457   1.358       .  S
C453        C454   1.407       .  A
C453        H458   1.083       .  S
C454        C455   1.411       .  A
C455        C456   1.394       .  A
C455        F459   1.357       .  S
C456        H460   1.083       .  S
C461        C462   1.402       .  A
C461        C466   1.400       .  A
C461        H471   1.083       .  S
C462        C463   1.401       .  A
C462        C467   1.469       .  S
C463        C464   1.392       .  A
C463        F468   1.358       .  S
C464        C465   1.404       .  A
C464        H469   1.083       .  S
C465        C466   1.408       .  A
C466        F470   1.357       .  S
C467        C472   1.403       .  A
C467        C476   1.399       .  A
C472        C473   1.396       .  A
C472        F477   1.357       .  S
C473        C474   1.405       .  A
C473        H478   1.083       .  S
C474        C475   1.411       .  A
C475        C476   1.397       .  A
C475        F479   1.358       .  S
C476        H480   1.083       .  S
C481        C482   1.403       .  A
C481        C486   1.397       .  A
C481        H491   1.083       .  S
C482        C483   1.405       .  A
C482        C487   1.478       .  S
C483        C484   1.398       .  A
C483        F488   1.357       .  S
C484        C485   1.405       .  A
C484        H489   1.083       .  S
C485        C486   1.408       .  A
C486        F490   1.357       .  S
C487        C492   1.405       .  A
C487        C496   1.400       .  A
C492        C493   1.400       .  A
C492        F497   1.357       .  S
C493        C494   1.407       .  A
C493        H498   1.082       .  S
C494        C495   1.412       .  A
C495        C496   1.395       .  A
C495        F499   1.358       .  S
C496        H500   1.083       .  S
C501        C502   1.407       .  A
C501        C506   1.398       .  A
C501        H511   1.082       .  S
C502        C503   1.405       .  A
C502        C507   1.481       .  S
C503        C504   1.391       .  A
C503        F508   1.358       .  S
C504        C505   1.406       .  A
C504        H509   1.083       .  S
C505        C506   1.407       .  A
C506        F510   1.357       .  S
C507        C512   1.409       .  A
C507        C516   1.407       .  A
C512        C513   1.396       .  A
C512        F517   1.358       .  S
C513        C514   1.401       .  A
C513        H518   1.082       .  S
C514        C515   1.400       .  A
C515        C516   1.393       .  A
C515        F519   1.358       .  S
C516        H520   1.081       .  S
C521        C522   1.403       .  A
C521        C526   1.394       .  A
C521        H531   1.084       .  S
C522        C523   1.406       .  A
C522        C527   1.481       .  S
C523        C524   1.400       .  A
C523        F528   1.357       .  S
C524        C525   1.406   1_556  A
C524        H529   1.083       .  S
C525        C526   1.409   1_554  A
C526        F530   1.358   1_556  S
C527        C532   1.406       .  A
C527        C536   1.405       .  A
C532        C533   1.392       .  A
C532        F537   1.358       .  S
C533        C534   1.406       .  A
C533        H538   1.083       .  S
C534        C535   1.408       .  A
C535        C536   1.400       .  A
C535        F539   1.357       .  S
C536        H540   1.083       .  S
C541        C542   1.405       .  A
C541        C546   1.399       .  A
C541        H551   1.083       .  S
C542        C543   1.407       .  A
C542        C547   1.479       .  S
C543        C544   1.395   1_556  A
C543        F548   1.358   1_556  S
C544        C545   1.400   1_554  A
C544        H549   1.084       .  S
C545        C546   1.402       .  A
C546        F550   1.357       .  S
C547        C552   1.407       .  A
C547        C556   1.402       .  A
C552        C553   1.397       .  A
C552        F557   1.358       .  S
C553        C554   1.404       .  A
C553        H558   1.083       .  S
C554        C555   1.409       .  A
C555        C556   1.396       .  A
C555        F559   1.358       .  S
C556        H560   1.083       .  S
C561        C562   1.404   1_655  A
C561        C566   1.396       .  A
C561        H571   1.082       .  S
C562        C567   1.484       .  S
C563        C564   1.400       .  A
C563        F568   1.357       .  S
C564        C565   1.406       .  A
C564        H569   1.082       .  S
C566        F570   1.358       .  S
C567        C572   1.407   1_455  A
C572        C573   1.396       .  A
C572        F577   1.358       .  S
C573        H578   1.083       .  S
C574        C575   1.409       .  A
C575        C576   1.400       .  A
C575        F579   1.357       .  S
C576        H580   1.082       .  S
C581        C582   1.407       .  A
C581        C586   1.400       .  A
C581        H591   1.083       .  S
C582        C583   1.410       .  A
C582        C587   1.485       .  S
C583        C584   1.394       .  A
C583        F588   1.358       .  S
C584        C585   1.399       .  A
C584        H589   1.084   1_556  S
C585        C586   1.402       .  A
C586        F590   1.357       .  S
C587        C592   1.409       .  A
C587        C596   1.404       .  A
C592        C593   1.398       .  A
C592        F597   1.357       .  S
C593        C594   1.404       .  A
C593        H598   1.083       .  S
C594        C595   1.407       .  A
C595        C596   1.396       .  A
C595        F599   1.358       .  S
C596        H600   1.083       .  S
C601        C602   1.402       .  A
C601        C606   1.393       .  A
C601        H611   1.084       .  S
C602        C603   1.405       .  A
C602        C607   1.472       .  S
C603        C604   1.400       .  A
C603        F608   1.357       .  S
C604        C605   1.403       .  A
C604        H609   1.083       .  S
C605        C606   1.404       .  A
C606        F610   1.358       .  S
C607        C612   1.401       .  A
C607        C616   1.402       .  A
C612        C613   1.393       .  A
C612        F617   1.358       .  S
C613        C614   1.408       .  A
C613        H618   1.083       .  S
C614        C615   1.410       .  A
C615        C616   1.401       .  A
C615        F619   1.357       .  S
C616        H620   1.083       .  S
C621        C622   1.404       .  A
C621        C626   1.396       .  A
C621        H631   1.082       .  S
C622        C627   1.481       .  S
C623        C624   1.399       .  A
C623        F628   1.357       .  S
C624        H629   1.082       .  S
C625        C626   1.406   1_455  A
C626        F630   1.358       .  S
C627        C632   1.407       .  A
C632        C633   1.398       .  A
C632        F637   1.358       .  S
C633        C634   1.406       .  A
C633        H638   1.083       .  S
C635        C636   1.396       .  A
C635        F639   1.358       .  S
C636        H640   1.083       .  S
