geometry optimzed in LAMMPS
_audit_creation_date              2020-11-30 
_audit_creation_method            'lammps2cif' 
_symmetry_space_group_name_H-M    'P1' 
_symmetry_Int_Tables_number       1 
_symmetry_cell_setting            triclinic 
loop_ 
_symmetry_equiv_pos_as_xyz 
  x,y,z 
_cell_length_a                    65.17902884 
_cell_length_b                    64.92679442749507 
_cell_length_c                    36.87459025746744 
_cell_angle_alpha                 90.04814412861536 
_cell_angle_beta                  90.10732982271377 
_cell_angle_gamma                 119.47304955787682 
loop_ 
_atom_site_label 
_atom_site_type_symbol 
_atom_site_fract_x 
_atom_site_fract_y 
_atom_site_fract_z 
_atom_site_charge 
O1          O  0.15625509  0.50059530  0.15881302    -0.85600
O2          O  0.14333337  0.51157469  0.22242724    -0.82600
C3          C  0.13050174  0.50822085  0.24960844     0.97900
O4          O  0.11970165  0.48789313  0.26343511    -0.82700
O5          O  0.08628062  0.45488182  0.21440002    -0.85300
C6          C  0.07796725  0.43995496  0.18865392     1.02400
O7          O  0.09045051  0.43195421  0.17491840    -0.78100
O8          O  0.12436649  0.46992269  0.13790491    -0.78300
C9          C  0.13962822  0.49164978  0.13594991     1.02400
O10         O  0.17994116  0.47987982  0.19780360    -0.85600
O11         O  0.16624343  0.48995638  0.26197859    -0.82600
C12         C  0.15757707  0.47170323  0.28179907     0.97900
O13         O  0.13654271  0.45536597  0.27744670    -0.82700
O14         O  0.09941085  0.42133426  0.23732263    -0.85300
C15         C  0.11100045  0.41141844  0.22813353     1.02400
O16         O  0.12572195  0.42052955  0.20234483    -0.78100
O17         O  0.15846103  0.45610664  0.15470549    -0.78200
C18         C  0.17835691  0.46862654  0.16925725     1.02300
Cr19       Cr  0.15900887  0.49297549  0.21012166     1.93700
Cr20       Cr  0.11220269  0.45588988  0.24527796     1.93200
Cr21       Cr  0.12542968  0.44601220  0.17064579     1.39100
O22         O  0.13234038  0.46529450  0.20849455    -1.23300
O23         O  0.97896992  0.15852773  0.40026100    -0.85600
O24         O  0.98260093  0.15907345  0.32586469    -0.82600
C25         C  0.96398556  0.16017597  0.32217620     0.97900
O26         O  0.96435057  0.17922935  0.33007668    -0.82700
O27         O  0.97807159  0.22378846  0.36065560    -0.85300
C28         C  0.97434232  0.22404864  0.39447252     1.02400
O29         O  0.98381018  0.21658911  0.41655281    -0.78100
O30         O  0.99731048  0.18606634  0.44169195    -0.78300
C31         C  0.98051047  0.16569838  0.43249338     1.02400
O32         O  0.02860033  0.17919403  0.40665720    -0.85600
O33         O  0.03206619  0.18847263  0.33305420    -0.82600
C34         C  0.03088918  0.19803589  0.30388660     0.97900
O35         O  0.01245267  0.19951758  0.29663348    -0.82700
O36         O  0.02377803  0.23999207  0.32939831    -0.85300
C37         C  0.03370597  0.25489582  0.35415451     1.02400
O38         O  0.03006884  0.24883131  0.38741442    -0.78100
O39         O  0.04458161  0.21733520  0.41141555    -0.78200
C40         C  0.04582498  0.19875819  0.41579509     1.02300
Cr41       Cr  0.00550791  0.17328517  0.36663721     1.93700
Cr42       Cr  0.99499712  0.20958906  0.33204005     1.93200
Cr43       Cr  0.01349485  0.21610662  0.41109993     1.39100
O44         O  0.00477030  0.20009794  0.36999640    -1.23300
O45         O  0.82557881  0.30731694  0.00010071    -0.85600
O46         O  0.81994942  0.30670339  0.07560829    -0.82600
C47         C  0.82167204  0.28846936  0.07983040     0.97900
O48         O  0.84092554  0.28951328  0.07269043    -0.82700
O49         O  0.88481409  0.30282202  0.04572980    -0.85300
C50         C  0.89162250  0.30525944  0.01295926     1.02400
O51         O  0.89057918  0.32047877  0.99311688    -0.78100
O52         O  0.85661387  0.32854443  0.46480386    -0.78300
C53         C  0.83570513  0.31119916  0.46964040     1.02400
O54         O  0.84242526  0.35609607  0.00031965    -0.85600
O55         O  0.84794439  0.35594786  0.07499242    -0.82600
C56         C  0.85618798  0.35397636  0.10497229     0.97900
O57         O  0.86037740  0.33687091  0.11106053    -0.82700
O58         O  0.90301079  0.34649651  0.08376453    -0.85300
C59         C  0.91794363  0.36292840  0.06448936     1.02400
O60         O  0.91307333  0.36513591  0.03177396    -0.78100
O61         O  0.88034692  0.37558060  0.50261351    -0.78200
C62         C  0.86121668  0.37515457  0.49599437     1.02300
Cr63       Cr  0.83647420  0.33152530  0.03783271     1.93700
Cr64       Cr  0.87138269  0.31982710  0.07531447     1.93200
Cr65       Cr  0.88356745  0.34638280  0.50107609     1.39100
O66         O  0.86435305  0.33264263  0.03804004    -1.23300
O67         O  0.84372648  0.48881683  0.25158536    -0.85600
O68         O  0.84629660  0.49374424  0.32655139    -0.82600
C69         C  0.85168411  0.50304301  0.35771936     0.97900
O70         O  0.85712681  0.52472868  0.36233121    -0.82700
O71         O  0.90084763  0.55348236  0.33466629    -0.85300
C72         C  0.91679242  0.55765844  0.31208080     1.02400
O73         O  0.91250401  0.55459298  0.27834399    -0.78100
O74         O  0.88194145  0.50901266  0.25286128    -0.78300
C75         C  0.86331758  0.49011955  0.24548002     1.02400
O76         O  0.82470287  0.51957684  0.24865606    -0.85600
O77         O  0.81877157  0.51654087  0.32309048    -0.82600
C78         C  0.82148707  0.53688859  0.32825612     0.97900
O79         O  0.84133273  0.55463344  0.32290703    -0.82700
O80         O  0.88628456  0.58311241  0.29714102    -0.85300
C81         C  0.88913757  0.58710339  0.26320916     1.02400
O82         O  0.88456155  0.57067260  0.24116063    -0.78100
O83         O  0.85500692  0.52765286  0.21335153    -0.78200
C84         C  0.83421438  0.52440579  0.21777655     1.02300
Cr85       Cr  0.83569102  0.50687368  0.28755133     1.93700
Cr86       Cr  0.87066189  0.55243020  0.32613904     1.93200
Cr87       Cr  0.88203009  0.53977761  0.24975267     1.39100
O88         O  0.86321383  0.53334969  0.28791181    -1.23300
O89         O  0.17261770  0.68540235  0.42087183    -0.85600
O90         O  0.16829904  0.68670450  0.49625589    -0.82600
C91         C  0.15853498  0.68532639  0.02650527     0.97900
O92         O  0.13705614  0.66944680  0.03285809    -0.82700
O93         O  0.10398932  0.67987960  0.50544541    -0.85300
C94         C  0.10711867  0.69732106  0.48652463     1.02400
O95         O  0.11526602  0.70005200  0.45458032    -0.78100
O96         O  0.15622964  0.70701677  0.42522227    -0.78300
C97         C  0.17375992  0.70506482  0.41691710     1.02400
O98         O  0.13988422  0.63735536  0.42285357    -0.85600
O99         O  0.14667899  0.63811649  0.49849740    -0.82600
C100        C  0.12697196  0.62019465  0.00301978     0.97900
O101        O  0.10901744  0.62176624  0.99606600    -0.82700
O102        O  0.07984212  0.63552118  0.46693292    -0.85300
C103        C  0.07529892  0.63955527  0.43510117     1.02400
O104        O  0.09062938  0.65636667  0.41697048    -0.78100
O105        O  0.13084932  0.65967834  0.38758616    -0.78200
C106        C  0.13352219  0.64148766  0.39253733     1.02300
Cr107      Cr  0.15446884  0.66207467  0.45966352     1.93700
Cr108      Cr  0.10914169  0.65258223  0.99761188     1.93200
Cr109      Cr  0.12380591  0.67962519  0.42388082     1.39100
O110        O  0.12863790  0.66485070  0.46044175    -1.23300
O111        O  0.02366846  0.84838014  0.15631289    -0.85600
O112        O  0.02275667  0.84203833  0.08244230    -0.82600
C113        C  0.01979233  0.83211363  0.05197929     0.97900
O114        O  0.00326705  0.81087394  0.04733645    -0.82700
O115        O  0.01857821  0.78408888  0.08196523    -0.85300
C116        C  0.02739765  0.77793944  0.10713439     1.02400
O117        O  0.02162016  0.77831007  0.13991543    -0.78100
O118        O  0.03831509  0.82472710  0.16197051    -0.78300
C119        C  0.04067956  0.84513388  0.16457557     1.02400
O120        O  0.97305838  0.82047129  0.15645099    -0.85600
O121        O  0.97301344  0.82095248  0.08172242    -0.82600
C122        C  0.95573316  0.80071276  0.07566432     0.97900
O123        O  0.95721526  0.78250181  0.08276020    -0.82700
O124        O  0.97324469  0.75351948  0.11392823    -0.85300
C125        C  0.96810116  0.74999034  0.14746055     1.02400
O126        O  0.97602299  0.76720081  0.16894453    -0.78100
O127        O  0.99266491  0.81144268  0.19577037    -0.78200
C128        C  0.97587659  0.81550267  0.18850354     1.02300
Cr129      Cr  0.99807794  0.83085511  0.11953418     1.93700
Cr130      Cr  0.98853914  0.78416696  0.08447772     1.93200
Cr131      Cr  0.00661416  0.79605209  0.16343670     1.39100
O132        O  0.99782782  0.80354582  0.12240208    -1.23300
O133        O  0.30799596  0.82073899  0.24989331    -0.85600
O134        O  0.30692180  0.81460299  0.17646397    -0.82600
C135        C  0.28886087  0.81591573  0.16813219     0.97900
O136        O  0.28909467  0.83533881  0.17173440    -0.82700
O137        O  0.30165127  0.88053227  0.19608555    -0.85300
C138        C  0.29645741  0.88050724  0.22933392     1.02400
O139        O  0.30739976  0.87607018  0.25351009    -0.78100
O140        O  0.32643780  0.85134665  0.28588562    -0.78300
C141        C  0.31123579  0.82962050  0.28113747     1.02400
O142        O  0.35842423  0.84508549  0.24886389    -0.85600
O143        O  0.35631231  0.84532526  0.17458503    -0.82600
C144        C  0.35235294  0.84964498  0.14283703     0.97900
O145        O  0.33510855  0.85322226  0.13662979    -0.82700
O146        O  0.34797959  0.89706252  0.16425979    -0.85300
C147        C  0.35702401  0.91345281  0.18737713     1.02400
O148        O  0.35195503  0.90918596  0.22078427    -0.78100
O149        O  0.37113650  0.88306001  0.24920014    -0.78200
C150        C  0.37471655  0.86595166  0.25453907     1.02300
Cr151      Cr  0.33223505  0.83354526  0.21241343     1.93700
Cr152      Cr  0.31922212  0.86602482  0.17043637     1.93200
Cr153      Cr  0.33861425  0.87847225  0.24918839     1.39100
O154        O  0.33008572  0.85962152  0.21056408    -1.23300
O155        O  0.16267173  0.97113292  0.33620134    -0.85600
O156        O  0.15693461  0.96951087  0.40960055    -0.82600
C157        C  0.16040840  0.95254229  0.41690597     0.97900
O158        O  0.18074788  0.95503261  0.41349299    -0.82700
O159        O  0.22662882  0.97261582  0.38919223    -0.85300
C160        C  0.22667079  0.96757051  0.35589635     1.02400
O161        O  0.22112812  0.97762202  0.33169376    -0.78100
O162        O  0.19237480  0.99214781  0.29990083    -0.78300
C163        C  0.17121430  0.97563977  0.30480141     1.02400
O164        O  0.18185377  0.02097606  0.33702926    -0.85600
O165        O  0.18356127  0.01973534  0.41118236    -0.82600
C166        C  0.18767290  0.01587780  0.44309689     0.97900
O167        O  0.19377503  0.00029848  0.44904547    -0.82700
O168        O  0.23845713  0.01797101  0.42142056    -0.85300
C169        C  0.25450292  0.02887187  0.39839126     1.02400
O170        O  0.25042603  0.02370678  0.36490241    -0.78100
O171        O  0.22012914  0.03796136  0.33689303    -0.78200
C172        C  0.20157293  0.03886243  0.33091970     1.02300
Cr173      Cr  0.17351314  0.99544839  0.37361991     1.93700
Cr174      Cr  0.20931415  0.98718599  0.41505707     1.93200
Cr175      Cr  0.21967247  0.00709084  0.33644234     1.39100
O176        O  0.20111425  0.99658890  0.37507181    -1.23300
O177        O  0.49904273  0.15536567  0.09839485    -0.85600
O178        O  0.50986013  0.13798785  0.03936312    -0.82600
C179        C  0.50888451  0.12728833  0.51052265     0.97900
O180        O  0.48980928  0.11785617  0.49249465    -0.82700
O181        O  0.45456291  0.08233284  0.03854781    -0.85300
C182        C  0.44055345  0.07415839  0.06549643     1.02400
O183        O  0.43208412  0.08622894  0.07915572    -0.78100
O184        O  0.47064704  0.12063784  0.11435806    -0.78300
C185        C  0.49170749  0.13698583  0.11745363     1.02400
O186        O  0.47816418  0.17584312  0.05287091    -0.85600
O187        O  0.49186730  0.16086354  0.49204095    -0.82600
C188        C  0.47409663  0.15484588  0.47195433     0.97900
O189        O  0.45658789  0.13432968  0.47595819    -0.82700
O190        O  0.42181451  0.09649643  0.01340518    -0.85300
C191        C  0.41052724  0.10558135  0.02782213     1.02400
O192        O  0.41968514  0.12042333  0.05351757    -0.78100
O193        O  0.45567077  0.15491574  0.09738230    -0.78200
C194        C  0.46655058  0.17448695  0.08092096     1.02300
Cr195      Cr  0.49241817  0.15534907  0.04548550     1.93700
Cr196      Cr  0.45654235  0.10919959  0.50781358     1.93200
Cr197      Cr  0.44595761  0.12135699  0.08338323     1.39100
O198        O  0.46483778  0.12870578  0.04553894    -1.23300
O199        O  0.84389775  0.02677052  0.08322181    -0.85600
O200        O  0.84202062  0.02797805  0.15823795    -0.82600
C201        C  0.83338896  0.02627953  0.18939687     0.97900
O202        O  0.81243647  0.00996032  0.19689612    -0.82700
O203        O  0.78266084  0.02437582  0.17130490    -0.85300
C204        C  0.78080692  0.03823449  0.14961782     1.02400
O205        O  0.78267270  0.03606446  0.11565423    -0.78100
O206        O  0.82505253  0.04631276  0.08637595    -0.78300
C207        C  0.84334783  0.04564710  0.07814012     1.02400
O208        O  0.81253285  0.97760705  0.08657074    -0.85600
O209        O  0.81912377  0.97822016  0.16072865    -0.82600
C210        C  0.79910635  0.96118955  0.16804544     0.97900
O211        O  0.78117818  0.96323228  0.16244042    -0.82700
O212        O  0.75182327  0.97996809  0.13759505    -0.85300
C213        C  0.74681044  0.97875206  0.10404331     1.02400
O214        O  0.76256982  0.98986980  0.08111678    -0.78100
O215        O  0.80326517  0.99886568  0.05016841    -0.78200
C216        C  0.80633871  0.98109805  0.05582781     1.02300
Cr217      Cr  0.82725531  0.00280394  0.12235739     1.93700
Cr218      Cr  0.78341714  0.99495312  0.16380871     1.93200
Cr219      Cr  0.79402223  0.01695105  0.08636990     1.39100
O220        O  0.80117290  0.00495172  0.12426833    -1.23300
O221        O  0.48864783  0.84884733  0.49318253    -0.85600
O222        O  0.49463669  0.85367662  0.41933323    -0.82600
C223        C  0.50398868  0.85913222  0.38844477     0.97900
O224        O  0.52508971  0.86323055  0.38364341    -0.82700
O225        O  0.55280742  0.90579010  0.41569010    -0.85300
C226        C  0.55883090  0.92122293  0.44007636     1.02400
O227        O  0.55756148  0.91570317  0.47341506    -0.78100
O228        O  0.51139069  0.88698876  0.99685588    -0.78300
C229        C  0.49138311  0.86898838  0.00063264     1.02400
O230        O  0.51657246  0.82601135  0.99335806    -0.85600
O231        O  0.51503188  0.82396927  0.41907593    -0.82600
C232        C  0.53498228  0.82585056  0.41393900     0.97900
O233        O  0.55330752  0.84513062  0.42120445    -0.82700
O234        O  0.58267301  0.89089367  0.45018096    -0.85300
C235        C  0.58609978  0.89070913  0.48414331     1.02400
O236        O  0.56892465  0.88177160  0.50530270    -0.78100
O237        O  0.52542441  0.85497974  0.03209332    -0.78200
C238        C  0.52132822  0.83403144  0.02522697     1.02300
Cr239      Cr  0.50576867  0.84016125  0.45645142     1.93700
Cr240      Cr  0.55207744  0.87535313  0.42063662     1.93200
Cr241      Cr  0.54024343  0.88372405  0.99876858     1.39100
O242        O  0.53286898  0.86675907  0.45852212    -1.23300
O243        O  0.69138856  0.17846114  0.32709292    -0.85600
O244        O  0.69046803  0.17291517  0.25320266    -0.82600
C245        C  0.68756691  0.16358171  0.22226677     0.97900
O246        O  0.67168061  0.14209649  0.21747673    -0.82700
O247        O  0.68839408  0.11632154  0.25074297    -0.85300
C248        C  0.69861253  0.11154391  0.27546659     1.02400
O249        O  0.69261807  0.11066221  0.30837555    -0.78100
O250        O  0.70739032  0.15594548  0.33162783    -0.78300
C251        C  0.70888570  0.17591604  0.33465107     1.02400
O252        O  0.64112844  0.14888893  0.32781371    -0.85600
O253        O  0.64057464  0.15028118  0.25304103    -0.82600
C254        C  0.62386170  0.12982336  0.24634141     0.97900
O255        O  0.62601567  0.11201062  0.25304253    -0.82700
O256        O  0.64270321  0.08415524  0.28266197    -0.85300
C257        C  0.63701705  0.08004979  0.31593705     1.02400
O258        O  0.64676317  0.09649503  0.33883862    -0.78100
O259        O  0.66162293  0.14079772  0.36627080    -0.78200
C260        C  0.64450199  0.14458785  0.35980965     1.02300
Cr261      Cr  0.66590570  0.16056331  0.29054291     1.93700
Cr262      Cr  0.65778661  0.11497790  0.25406902     1.93200
Cr263      Cr  0.67638580  0.12654601  0.33307045     1.39100
O264        O  0.66670246  0.13381162  0.29254253    -1.23300
O265        O  0.51206775  0.35858467  0.25514934    -0.85600
O266        O  0.50821243  0.35492597  0.32885455    -0.82600
C267        C  0.49875770  0.35136999  0.35957529     0.97900
O268        O  0.47875271  0.33325257  0.36541527    -0.82700
O269        O  0.45009976  0.34795940  0.33893831    -0.85300
C270        C  0.44136642  0.35670822  0.31796470     1.02400
O271        O  0.44183640  0.35376282  0.28382290    -0.78100
O272        O  0.48842599  0.37336704  0.25726748    -0.78300
C273        C  0.50858695  0.37593772  0.25101043     1.02400
O274        O  0.48574864  0.30837166  0.25010107    -0.85600
O275        O  0.48864836  0.30470375  0.32497075    -0.82600
C276        C  0.46886733  0.28691888  0.33196277     0.97900
O277        O  0.45041001  0.28806286  0.32662543    -0.82700
O278        O  0.42001457  0.30333448  0.30260776    -0.85300
C279        C  0.41588824  0.29952698  0.26882757     1.02400
O280        O  0.43165230  0.31070315  0.24583815    -0.78100
O281        O  0.47505713  0.32947234  0.21624743    -0.78200
C282        C  0.48053791  0.31316375  0.21941244     1.02300
Cr283      Cr  0.49656100  0.33144785  0.28992751     1.93700
Cr284      Cr  0.45108649  0.31883524  0.33024994     1.93200
Cr285      Cr  0.46003886  0.34124985  0.25380922     1.39100
O286        O  0.46896173  0.33039012  0.29125815    -1.23300
O287        O  0.18114528  0.15397575  0.08876884    -0.85600
O288        O  0.18884096  0.15917581  0.16313361    -0.82600
C289        C  0.19752475  0.16904381  0.19314608     0.97900
O290        O  0.20199519  0.19024584  0.19948929    -0.82700
O291        O  0.24418967  0.21836445  0.16872505    -0.85300
C292        C  0.25850411  0.21866460  0.14577862     1.02400
O293        O  0.25291591  0.21535116  0.11232771    -0.78100
O294        O  0.21919823  0.17217535  0.08654768    -0.78300
C295        C  0.19981644  0.15372258  0.08147315     1.02400
O296        O  0.16445247  0.18649156  0.09246337    -0.85600
O297        O  0.16268616  0.18291608  0.16695155    -0.82600
C298        C  0.16542573  0.20321652  0.17189040     0.97900
O299        O  0.18508266  0.22071859  0.16443087    -0.82700
O300        O  0.22965841  0.24858143  0.13558209    -0.85300
C301        C  0.23233389  0.25275313  0.10181213     1.02400
O302        O  0.22662473  0.23613267  0.07959846    -0.78100
O303        O  0.19284338  0.19400705  0.05305296    -0.78200
C304        C  0.17242213  0.19118180  0.06057315     1.02300
Cr305      Cr  0.17660127  0.17277720  0.12772949     1.93700
Cr306      Cr  0.21420318  0.21793164  0.16394219     1.93200
Cr307      Cr  0.22161572  0.20397298  0.08603705     1.39100
O308        O  0.20462755  0.19861974  0.12585310    -1.23300
O309        O  0.35856745  0.51288731  0.48749533    -0.85600
O310        O  0.35748676  0.50457012  0.41352978    -0.82600
C311        C  0.35470919  0.49317831  0.38437564     0.97900
O312        O  0.33627994  0.47313459  0.37949375    -0.82700
O313        O  0.34922876  0.44396269  0.41112947    -0.85300
C314        C  0.36058741  0.43981387  0.43486578     1.02400
O315        O  0.35964298  0.44459141  0.46804527    -0.78100
O316        O  0.37492357  0.49094671  0.99011301    -0.78300
C317        C  0.37617829  0.51072929  0.99449962     1.02400
O318        O  0.30907707  0.48511625  0.98903061    -0.85600
O319        O  0.30828611  0.48562293  0.41398430    -0.82600
C320        C  0.28978041  0.46609771  0.41059396     0.97900
O321        O  0.29028300  0.44743480  0.41832168    -0.82700
O322        O  0.30537842  0.41713197  0.44769274    -0.85300
C323        C  0.30479095  0.41390867  0.48172322     1.02400
O324        O  0.31577705  0.43096908  0.50301915    -0.78100
O325        O  0.32910357  0.47510246  0.02695085    -0.78200
C326        C  0.31236966  0.47952885  0.02051265     1.02300
Cr327      Cr  0.33326972  0.49478606  0.45116190     1.93700
Cr328      Cr  0.32088292  0.44702478  0.41721993     1.93200
Cr329      Cr  0.34419828  0.46116995  0.99368873     1.39100
O330        O  0.33266910  0.46718598  0.45421086    -1.23300
O331        O  0.48990726  0.64086303  0.17252685    -0.85600
O332        O  0.48683286  0.63926089  0.24671135    -0.82600
C333        C  0.48917164  0.62137864  0.25219512     0.97900
O334        O  0.50913842  0.62317607  0.24706566    -0.82700
O335        O  0.55532775  0.64044606  0.21946171    -0.85300
C336        C  0.55514301  0.63664553  0.18555869     1.02400
O337        O  0.54567882  0.64448108  0.16434298    -0.78100
O338        O  0.51945695  0.66161387  0.13560389    -0.78300
C339        C  0.49866184  0.64460516  0.14111536     1.02400
O340        O  0.51164855  0.69113454  0.17444513    -0.85600
O341        O  0.51526277  0.68960836  0.24854441    -0.82600
C342        C  0.52262282  0.68681580  0.27877959     0.97900
O343        O  0.52512430  0.66880392  0.28440630    -0.82700
O344        O  0.56750398  0.68479802  0.25393738    -0.85300
C345        C  0.58372211  0.69331331  0.23095603     1.02400
O346        O  0.57897566  0.68912843  0.19735847    -0.78100
O347        O  0.54984031  0.70671107  0.17317906    -0.78200
C348        C  0.53171339  0.70860583  0.16825052     1.02300
Cr349      Cr  0.50280233  0.66517992  0.21062619     1.93700
Cr350      Cr  0.53838890  0.65470493  0.24825193     1.93200
Cr351      Cr  0.54733902  0.67499692  0.17061966     1.39100
O352        O  0.52970654  0.66497528  0.20986484    -1.23300
O353        O  0.64103558  0.49071094  0.07601622    -0.85600
O354        O  0.63971341  0.48773252  0.00132032    -0.82600
C355        C  0.62167294  0.48968979  0.49593461     0.97900
O356        O  0.62226707  0.50898076  0.50270875    -0.82700
O357        O  0.63799394  0.55465819  0.02941329    -0.85300
C358        C  0.63521049  0.55599476  0.06319738     1.02400
O359        O  0.64477848  0.54897455  0.08580970    -0.78100
O360        O  0.66062224  0.52073330  0.11327393    -0.78300
C361        C  0.64405371  0.49956764  0.10742098     1.02400
O362        O  0.69107461  0.51315358  0.07408293    -0.85600
O363        O  0.68919789  0.51723207  0.49951626    -0.82600
C364        C  0.68526161  0.52321012  0.46882137     0.97900
O365        O  0.66771947  0.52653207  0.46426024    -0.82700
O366        O  0.68214992  0.56887204  0.99491118    -0.85300
C367        C  0.69114062  0.58531523  0.01763750     1.02400
O368        O  0.68859561  0.58064084  0.05138653    -0.78100
O369        O  0.70610638  0.55136632  0.07573086    -0.78200
C370        C  0.70841986  0.53336802  0.07982055     1.02300
Cr371      Cr  0.66518468  0.50427741  0.03789248     1.93700
Cr372      Cr  0.65310024  0.53891001  0.50099149     1.93200
Cr373      Cr  0.67450048  0.54905011  0.07847639     1.39100
O374        O  0.66417188  0.53097737  0.03921585    -1.23300
O375        O  0.81282591  0.84176200  0.33943723    -0.85600
O376        O  0.81516572  0.84513933  0.41402098    -0.82600
C377        C  0.79507153  0.84286145  0.41943701     0.97900
O378        O  0.77695810  0.82332295  0.41310357    -0.82700
O379        O  0.74780350  0.77790753  0.38570214    -0.85300
C380        C  0.74380477  0.77667691  0.35177091     1.02400
O381        O  0.76033739  0.78355250  0.32941194    -0.78100
O382        O  0.80363317  0.81198815  0.30190998    -0.78300
C383        C  0.80778677  0.83312820  0.30794702     1.02400
O384        O  0.84109080  0.82004343  0.33977380    -0.85600
O385        O  0.83627738  0.81581197  0.41367442    -0.82600
C386        C  0.82658178  0.80895446  0.44407593     0.97900
O387        O  0.80606202  0.80611063  0.45004250    -0.82700
O388        O  0.77808541  0.76340637  0.42053376    -0.85300
C389        C  0.77106563  0.74712178  0.39747418     1.02400
O390        O  0.77329542  0.75199409  0.36376786    -0.78100
O391        O  0.81965975  0.78177360  0.33971221    -0.78200
C392        C  0.83922948  0.80005544  0.33437241     1.02300
Cr393      Cr  0.82425854  0.82864013  0.37677929     1.93700
Cr394      Cr  0.77860041  0.79354705  0.41430359     1.93200
Cr395      Cr  0.79002465  0.78363601  0.33675171     1.39100
O396        O  0.79725457  0.80168879  0.37587839    -1.23300
C397        C  0.75900713  0.72232242  0.41184361     0.01100
C398        C  0.74280703  0.71664579  0.44085901     0.03900
C399        C  0.73402161  0.69500631  0.45944461    -0.12100
C400        C  0.74022616  0.67805864  0.44839440     0.23200
C401        C  0.75523596  0.68294607  0.41814219    -0.12700
C402        C  0.76458941  0.70497712  0.39987262     0.04600
C403        C  0.72852298  0.65422878  0.46623685     0.27100
C404        C  0.73780917  0.64986335  0.49817728    -0.13400
C405        C  0.72535001  0.62787195  0.01634409     0.05200
C406        C  0.70346043  0.61000909  0.00275887    -0.09400
C407        C  0.69368032  0.61517564  0.47201116     0.06000
C408        C  0.70637768  0.63677797  0.45343618    -0.13700
Br409      Br  0.76292003  0.65933100  0.40197949    -0.05800
Br410      Br  0.73080358  0.73762609  0.45378143    -0.00200
Br411      Br  0.73842985  0.62243355  0.05982353     0.00300
Br412      Br  0.69320719  0.64279975  0.41037043    -0.04100
Br413      Br  0.78498442  0.71126574  0.35870741     0.00400
Br414      Br  0.71281819  0.68822078  0.99980574    -0.03400
Br415      Br  0.76757690  0.67422804  0.51679175    -0.04300
Br416      Br  0.66176732  0.59359208  0.45629471    -0.00300
C417        C  0.71955707  0.76526613  0.33645721     0.01100
C418        C  0.71293013  0.74650389  0.31137333     0.03900
C419        C  0.69137372  0.73708374  0.29269212    -0.12100
C420        C  0.67582577  0.74588957  0.29920319     0.23200
C421        C  0.68212411  0.76435102  0.32467539    -0.12700
C422        C  0.70399917  0.77408175  0.34319756     0.04600
C423        C  0.65200066  0.73365800  0.28187265     0.27100
C424        C  0.64709951  0.74234565  0.24975654    -0.13400
C425        C  0.62503705  0.72920268  0.23202258     0.05200
C426        C  0.60825465  0.70676408  0.24542859    -0.09400
C427        C  0.61407395  0.69758296  0.27619606     0.06000
C428        C  0.63515196  0.71142194  0.29528054    -0.13700
Br429      Br  0.66067196  0.77608755  0.33427333    -0.05800
Br430      Br  0.73292284  0.73271909  0.30325074    -0.00200
Br431      Br  0.61783264  0.74214327  0.19000681     0.00300
Br432      Br  0.64122556  0.69970090  0.33989084    -0.04100
Br433      Br  0.71301707  0.79990196  0.37678996     0.00400
Br434      Br  0.68279397  0.71153502  0.25842361    -0.03400
Br435      Br  0.67083438  0.77204548  0.22995656    -0.04300
Br436      Br  0.59424991  0.66501395  0.29072619    -0.00300
C437        C  0.62249250  0.56785527  0.07754640     0.01100
C438        C  0.63473392  0.58772266  0.10053538     0.03900
C439        C  0.62273117  0.59801558  0.11758131    -0.12100
C440        C  0.59852183  0.58900201  0.11114437     0.23200
C441        C  0.58646734  0.56995017  0.08680987    -0.12700
C442        C  0.59830040  0.55897892  0.07074285     0.04600
C443        C  0.58623568  0.60018588  0.12970072     0.27100
C444        C  0.57517068  0.59157495  0.16344677    -0.13400
C445        C  0.56567934  0.60371562  0.18289382     0.05200
C446        C  0.56724217  0.62462384  0.16857638    -0.09400
C447        C  0.57938758  0.63367020  0.13525874     0.06000
C448        C  0.58813050  0.62111579  0.11557716    -0.13700
Br449      Br  0.55397223  0.55937114  0.07503705    -0.05800
Br450      Br  0.66824458  0.60146798  0.10846351    -0.00200
Br451      Br  0.55074925  0.59150281  0.22887076     0.00300
Br452      Br  0.60313956  0.63271170  0.06913252    -0.04100
Br453      Br  0.58111433  0.53090560  0.04166216     0.00400
Br454      Br  0.63953365  0.62475587  0.14972286    -0.03400
Br455      Br  0.57323780  0.56308150  0.18282882    -0.04300
Br456      Br  0.58611852  0.66439116  0.11711177    -0.00300
C457        C  0.46853658  0.59892976  0.26597816     0.01100
C458        C  0.44954434  0.59949207  0.28435838     0.03900
C459        C  0.43059201  0.57854831  0.29808467    -0.12100
C460        C  0.43034955  0.55690165  0.29459584     0.23200
C461        C  0.44846311  0.55585561  0.27557688    -0.12700
C462        C  0.46717614  0.57658836  0.26057820     0.04600
C463        C  0.41176051  0.53581193  0.31358421     0.27100
C464        C  0.41610798  0.53085832  0.34894090    -0.13400
C465        C  0.39743982  0.51423578  0.37001243     0.05200
C466        C  0.37400698  0.50381287  0.35717356    -0.09400
C467        C  0.37008842  0.50634322  0.32015111     0.06000
C468        C  0.38904820  0.52245836  0.29838577    -0.13700
Br469      Br  0.44743918  0.52575675  0.27046807    -0.05800
Br470      Br  0.44854311  0.62843646  0.29254722    -0.00200
Br471      Br  0.40423776  0.50492202  0.41600154     0.00300
Br472      Br  0.38394100  0.52753543  0.24845296    -0.04100
Br473      Br  0.48954486  0.57330098  0.23050693     0.00400
Br474      Br  0.40475347  0.57932685  0.32274351    -0.03400
Br475      Br  0.44729793  0.54824435  0.36973429    -0.04300
Br476      Br  0.33929764  0.48817790  0.29897175    -0.00300
C477        C  0.48379956  0.62899956  0.11114590     0.01100
C478        C  0.45998209  0.62348212  0.10869362     0.03900
C479        C  0.44405023  0.60467255  0.08664437    -0.12100
C480        C  0.45195031  0.59190935  0.06547290     0.23200
C481        C  0.47598095  0.59842986  0.06565918    -0.12700
C482        C  0.49189106  0.61686763  0.08848465     0.04600
C483        C  0.43454197  0.57064921  0.04513740     0.27100
C484        C  0.42373511  0.54843647  0.06238486    -0.13400
C485        C  0.40513252  0.52868317  0.04525133     0.05200
C486        C  0.39742173  0.53093692  0.01045778    -0.09400
C487        C  0.40867965  0.55313919  0.99279099     0.06000
C488        C  0.42733574  0.57288290  0.01002513    -0.13700
Br489      Br  0.48663896  0.58090485  0.03628298    -0.05800
Br490      Br  0.44908133  0.64192797  0.13521460    -0.00200
Br491      Br  0.38855153  0.49920163  0.07130142     0.00300
Br492      Br  0.44274461  0.60324052  0.98614827    -0.04100
Br493      Br  0.52417745  0.62389524  0.08997276     0.00400
Br494      Br  0.41095266  0.59517953  0.08735964    -0.03400
Br495      Br  0.43383107  0.54544244  0.11037702    -0.04300
Br496      Br  0.39855987  0.55677143  0.44555632    -0.00300
C497        C  0.29270794  0.38987662  0.49827841     0.01100
C498        C  0.26880577  0.37341477  0.49131962     0.03900
C499        C  0.25780194  0.35154960  0.00996080    -0.12100
C500        C  0.27042959  0.34617599  0.03589064     0.23200
C501        C  0.29414172  0.36270288  0.04310050    -0.12700
C502        C  0.30539351  0.38416057  0.02396231     0.04600
C503        C  0.25991207  0.32226960  0.05287823     0.27100
C504        C  0.24717192  0.31722663  0.08556712    -0.13400
C505        C  0.23867539  0.29494319  0.10254706     0.05200
C506        C  0.24280508  0.27737588  0.08671893    -0.09400
C507        C  0.25668909  0.28320890  0.05463629     0.06000
C508        C  0.26472854  0.30526140  0.03768164    -0.13700
Br509      Br  0.31138593  0.35559965  0.07903578    -0.05800
Br510      Br  0.25098471  0.38106410  0.45759526    -0.00200
Br511      Br  0.22162230  0.28914103  0.14743746     0.00300
Br512      Br  0.28291861  0.31258835  0.49355631    -0.04100
Br513      Br  0.33878943  0.40485911  0.03174457     0.00400
Br514      Br  0.22540601  0.32864788  0.99985471    -0.03400
Br515      Br  0.24174905  0.34121553  0.10713217    -0.04300
Br516      Br  0.26688911  0.26219099  0.03452741    -0.00300
C517        C  0.51147892  0.36926543  0.38791096     0.01100
C518        C  0.51405954  0.39205852  0.38381280     0.03900
C519        C  0.52978409  0.41079734  0.40605046    -0.12100
C520        C  0.54363302  0.40711157  0.43172371     0.23200
C521        C  0.54062998  0.38424827  0.43667823    -0.12700
C522        C  0.52447423  0.36529185  0.41485435     0.04600
C523        C  0.56351849  0.42794595  0.44934865     0.27100
C524        C  0.58524138  0.43985995  0.43111241    -0.13400
C525        C  0.60362878  0.46089522  0.44545391     0.05200
C526        C  0.60089048  0.46960020  0.47910699    -0.09400
C527        C  0.57930474  0.45743221  0.49783886     0.06000
C528        C  0.56050442  0.43677051  0.48267062    -0.13700
Br529      Br  0.56001907  0.37949327  0.47143795    -0.05800
Br530      Br  0.49760113  0.39834108  0.34566805    -0.00200
Br531      Br  0.63234532  0.47824532  0.41803159     0.00300
Br532      Br  0.53075813  0.42017505  0.50755630    -0.04100
Br533      Br  0.52192480  0.33453010  0.41910448     0.00400
Br534      Br  0.53371643  0.44207673  0.39963501    -0.03400
Br535      Br  0.58998458  0.42703513  0.38665919    -0.04300
Br536      Br  0.57586337  0.46826038  0.04477594    -0.00300
C537        C  0.62785679  0.48438045  0.13692543     0.01100
C538        C  0.62157441  0.46017219  0.13875589     0.03900
C539        C  0.60236703  0.44420991  0.16014312    -0.12100
C540        C  0.58977900  0.45233066  0.18124253     0.23200
C541        C  0.59745447  0.47674326  0.18251218    -0.12700
C542        C  0.61617474  0.49270432  0.16015233     0.04600
C543        C  0.56833650  0.43505559  0.20163561     0.27100
C544        C  0.54572710  0.42593827  0.18593768    -0.13400
C545        C  0.52564703  0.40819444  0.20388144     0.05200
C546        C  0.52822116  0.39850772  0.23674742    -0.09400
C547        C  0.55072918  0.40853096  0.25321200     0.06000
C548        C  0.57058907  0.42690770  0.23598429    -0.13700
Br549      Br  0.58194586  0.48806531  0.21491786    -0.05800
Br550      Br  0.63989893  0.44882581  0.11313023    -0.00200
Br551      Br  0.49487098  0.39644182  0.18231369     0.00300
Br552      Br  0.60114814  0.44049257  0.25885730    -0.04100
Br553      Br  0.62452221  0.52556231  0.16052852     0.00400
Br554      Br  0.59284902  0.41094949  0.16006507    -0.03400
Br555      Br  0.54254594  0.43673541  0.13863727    -0.04300
Br556      Br  0.55454093  0.39730557  0.29972331    -0.00300
C557        C  0.28238433  0.22412613  0.15993546     0.01100
C558        C  0.28484466  0.21910989  0.19690910     0.03900
C559        C  0.30719707  0.22868634  0.21322138    -0.12100
C560        C  0.32744346  0.24401547  0.19371285     0.23200
C561        C  0.32559595  0.24747981  0.15638174    -0.12700
C562        C  0.30323896  0.23708424  0.13922386     0.04600
C563        C  0.35014534  0.25779607  0.21366624     0.27100
C564        C  0.35398643  0.27770048  0.23435230    -0.13400
C565        C  0.37485634  0.29035179  0.25468569     0.05200
C566        C  0.39205256  0.28318875  0.25462218    -0.09400
C567        C  0.38803996  0.26301973  0.23444065     0.06000
C568        C  0.36711302  0.25032459  0.21408961    -0.13700
Br569      Br  0.35381711  0.26752073  0.12936373    -0.05800
Br570      Br  0.25814820  0.19962612  0.22725855    -0.00200
Br571      Br  0.38063385  0.31856105  0.28057261     0.00300
Br572      Br  0.36168209  0.22286266  0.18640095    -0.04100
Br573      Br  0.30191067  0.24170015  0.08783110     0.00400
Br574      Br  0.31030432  0.22177433  0.26337415    -0.03400
Br575      Br  0.33079562  0.28801381  0.23401818    -0.04300
Br576      Br  0.41133052  0.25285647  0.23461939    -0.00300
C577        C  0.43005060  0.36963811  0.33532692     0.01100
C578        C  0.41824218  0.36145109  0.36918716     0.03900
C579        C  0.40980565  0.37458280  0.38833719    -0.12100
C580        C  0.41140113  0.39517175  0.37315789     0.23200
C581        C  0.42254233  0.40316840  0.33925739    -0.12700
C582        C  0.43217646  0.39075134  0.32068192     0.04600
C583        C  0.39870939  0.40651299  0.39076214     0.27100
C584        C  0.37438444  0.39689719  0.38447635    -0.13400
C585        C  0.36200713  0.40733988  0.40012205     0.05200
C586        C  0.37375706  0.42762726  0.42259036    -0.09400
C587        C  0.39787470  0.43644030  0.43065748     0.06000
C588        C  0.41035759  0.42609573  0.41439384    -0.13700
Br589      Br  0.42433160  0.43121469  0.31837774    -0.05800
Br590      Br  0.41158035  0.33117003  0.38908519    -0.00200
Br591      Br  0.32843889  0.39283584  0.39166793     0.00300
Br592      Br  0.44347441  0.43878191  0.42412361    -0.04100
Br593      Br  0.44892933  0.40337112  0.27597786     0.00400
Br594      Br  0.39561459  0.36425510  0.43561873    -0.03400
Br595      Br  0.35794269  0.36913157  0.35419404    -0.04300
Br596      Br  0.41401632  0.46282554  0.46333563    -0.00300
C597        C  0.61977514  0.05569575  0.32989876     0.01100
C598        C  0.61637791  0.03458103  0.31298430     0.03900
C599        C  0.60488343  0.01276796  0.33190794    -0.12100
C600        C  0.59671684  0.01176391  0.36768954     0.23200
C601        C  0.59788180  0.03217175  0.38290705    -0.12700
C602        C  0.60815914  0.05356360  0.36337573     0.04600
C603        C  0.58687550  0.98934141  0.38928166     0.27100
C604        C  0.56229805  0.97496367  0.39401045    -0.13400
C605        C  0.55320427  0.95364025  0.41380073     0.05200
C606        C  0.56848948  0.94611612  0.42811460    -0.09400
C607        C  0.59306686  0.96075636  0.42418988     0.06000
C608        C  0.60221863  0.98247559  0.40551194    -0.13700
Br609      Br  0.58604267  0.03105110  0.43127814    -0.05800
Br610      Br  0.62619491  0.03466335  0.26363777    -0.00200
Br611      Br  0.51968908  0.93436673  0.42109678     0.00300
Br612      Br  0.63587517  0.00279602  0.40170605    -0.04100
Br613      Br  0.60345004  0.07890816  0.38082607     0.00400
Br614      Br  0.60038132  0.98405586  0.30912840    -0.03400
Br615      Br  0.54103252  0.98409852  0.37234328    -0.04300
Br616      Br  0.61424407  0.95040300  0.44240570    -0.00300
C617        C  0.52155529  0.81816249  0.05400821     0.01100
C618        C  0.54086635  0.82574111  0.07813737     0.03900
C619        C  0.54299544  0.80916784  0.10016764    -0.12100
C620        C  0.52630874  0.78497099  0.09752422     0.23200
C621        C  0.50646330  0.77749124  0.07491809    -0.12700
C622        C  0.50378687  0.79408233  0.05392577     0.04600
C623        C  0.52982307  0.76723387  0.11784741     0.27100
C624        C  0.54464535  0.75909915  0.10374565    -0.13400
C625        C  0.54641784  0.74077878  0.12131187     0.05200
C626        C  0.53323928  0.73045445  0.15309912    -0.09400
C627        C  0.51934187  0.73956335  0.16809922     0.06000
C628        C  0.51766741  0.75788026  0.15048232    -0.13700
Br629      Br  0.48340368  0.74428293  0.07164370    -0.05800
Br630      Br  0.56548326  0.85828208  0.07975801    -0.00200
Br631      Br  0.56550413  0.72881400  0.09984951     0.00300
Br632      Br  0.49824651  0.76992423  0.17041374    -0.04100
Br633      Br  0.47534695  0.78368132  0.02562833     0.00400
Br634      Br  0.56920250  0.81927958  0.13328966    -0.03400
Br635      Br  0.56174882  0.77250173  0.05938618    -0.04300
Br636      Br  0.50264777  0.72732497  0.21308779    -0.00300
C637        C  0.53614453  0.80555329  0.39752979     0.01100
C638        C  0.52483148  0.79631548  0.36396048     0.03900
C639        C  0.52361493  0.77567240  0.34959263    -0.12100
C640        C  0.53448967  0.76449245  0.36781911     0.23200
C641        C  0.54583993  0.77362729  0.40136978    -0.12700
C642        C  0.54632159  0.79389348  0.41649360     0.04600
C643        C  0.53468639  0.74389836  0.35017921     0.27100
C644        C  0.51800061  0.72046429  0.35970205    -0.13400
C645        C  0.51576366  0.70126614  0.33863919     0.05200
C646        C  0.52896587  0.70554283  0.30656390    -0.09400
C647        C  0.54647199  0.72890622  0.29819734     0.06000
C648        C  0.54969073  0.74789457  0.32039495    -0.13700
Br649      Br  0.56047823  0.75820057  0.42658907    -0.05800
Br650      Br  0.51151828  0.81229917  0.33669274    -0.00200
Br651      Br  0.49386565  0.66931721  0.35271135     0.00300
Br652      Br  0.57360247  0.77975021  0.30851531    -0.04100
Br653      Br  0.55946955  0.80472655  0.46418364     0.00400
Br654      Br  0.50664784  0.76235092  0.30489474    -0.03400
Br655      Br  0.49674967  0.71484664  0.39947747    -0.04300
Br656      Br  0.56571318  0.73520030  0.25548128    -0.00300
C657        C  0.79328139  0.86292019  0.43504703     0.01100
C658        C  0.78482684  0.86148257  0.47067903     0.03900
C659        C  0.78660367  0.88178127  0.48759303    -0.12100
C660        C  0.79552993  0.90320686  0.46821374     0.23200
C661        C  0.80262103  0.90424512  0.43194956    -0.12700
C662        C  0.80217494  0.88440772  0.41578060     0.04600
C663        C  0.79880704  0.92493968  0.98670497     0.27100
C664        C  0.77956726  0.92908411  0.49079360    -0.13400
C665        C  0.78235195  0.94875608  0.01091492     0.05200
C666        C  0.80437772  0.96452540  0.02666339    -0.09400
C667        C  0.82387777  0.96110949  0.02039395     0.06000
C668        C  0.82108213  0.94135671  0.00066813    -0.13700
Br669      Br  0.81341463  0.93314278  0.40476777    -0.05800
Br670      Br  0.77199984  0.83207777  0.49706022    -0.00200
Br671      Br  0.75537641  0.95288896  0.51892099     0.00300
Br672      Br  0.84756320  0.93612558  0.99424294    -0.04100
Br673      Br  0.81405731  0.88704879  0.36729544     0.00400
Br674      Br  0.77809623  0.88069122  0.53794817    -0.03400
Br675      Br  0.74935071  0.90698080  0.47020494    -0.04300
Br676      Br  0.85445541  0.98318261  0.04011102    -0.00300
C677        C  0.79727475  0.93963144  0.18491364     0.01100
C678        C  0.80479820  0.92571832  0.16572324     0.03900
C679        C  0.80580244  0.90691867  0.18309942    -0.12100
C680        C  0.79969313  0.90212007  0.21995276     0.23200
C681        C  0.79171895  0.91568576  0.23902810    -0.12700
C682        C  0.79031261  0.93426013  0.22147386     0.04600
C683        C  0.80259070  0.88346001  0.23898342     0.27100
C684        C  0.78390593  0.85995545  0.24010579    -0.13400
C685        C  0.78639555  0.84255243  0.25943456     0.05200
C686        C  0.80737213  0.84874251  0.27878256    -0.09400
C687        C  0.82658054  0.87202334  0.27566315     0.06000
C688        C  0.82415633  0.88929666  0.25596130    -0.13700
Br689      Br  0.78359884  0.90930924  0.28963523    -0.05800
Br690      Br  0.81368282  0.93225748  0.11547411    -0.00200
Br691      Br  0.76054002  0.81062841  0.26050561     0.00300
Br692      Br  0.85003472  0.92133635  0.25341971    -0.04100
Br693      Br  0.78016014  0.95322873  0.24815587     0.00400
Br694      Br  0.81609234  0.88795915  0.15675428    -0.03400
Br695      Br  0.75443744  0.85202010  0.21670361    -0.04300
Br696      Br  0.85639024  0.88034303  0.29846706    -0.00300
C697        C  0.71704925  0.10594601  0.26428559     0.01100
C698        C  0.73691628  0.12299424  0.24510794     0.03900
C699        C  0.75127615  0.11618677  0.22580845    -0.12100
C700        C  0.74549071  0.09223177  0.22509331     0.23200
C701        C  0.72652245  0.07552479  0.24612226    -0.12700
C702        C  0.71258267  0.08245490  0.26612869     0.04600
C703        C  0.75897476  0.08403723  0.20250794     0.27100
C704        C  0.75230265  0.07702665  0.16634031    -0.13400
C705        C  0.76104217  0.06394076  0.14760069     0.05200
C706        C  0.77564894  0.05660625  0.16569690    -0.09400
C707        C  0.78318357  0.06508445  0.20180910     0.06000
C708        C  0.77563572  0.07949234  0.21917056    -0.13700
Br709      Br  0.71889447  0.04276435  0.24593769    -0.05800
Br710      Br  0.74428217  0.15566976  0.24527128    -0.00200
Br711      Br  0.75073557  0.05468000  0.09846573     0.00300
Br712      Br  0.78676834  0.09196928  0.26729596    -0.04100
Br713      Br  0.68651858  0.05941463  0.29428550     0.00400
Br714      Br  0.77848684  0.13941737  0.19978977    -0.03400
Br715      Br  0.72972888  0.08409282  0.14363929    -0.04300
Br716      Br  0.80230413  0.05611027  0.23050948    -0.00300
C717        C  0.61005840  0.90271806  0.50106133     0.01100
C718        C  0.62869966  0.89950287  0.48819679     0.03900
C719        C  0.65082440  0.91053653  0.00617685    -0.12100
C720        C  0.65411890  0.92403278  0.03788349     0.23200
C721        C  0.63553347  0.92701741  0.05101239    -0.12700
C722        C  0.61393458  0.91705159  0.03228853     0.04600
C723        C  0.67779540  0.93752036  0.05523432     0.27100
C724        C  0.68467205  0.92780877  0.08387432    -0.13400
C725        C  0.70673361  0.94141917  0.10128079     0.05200
C726        C  0.72222379  0.96480387  0.08968071    -0.09400
C727        C  0.71499366  0.97436128  0.06080503     0.06000
C728        C  0.69289977  0.96087875  0.04413423    -0.13700
Br729      Br  0.64009354  0.94552629  0.09444719    -0.05800
Br730      Br  0.62389657  0.87934048  0.44702591    -0.00200
Br731      Br  0.71608001  0.92733553  0.13929247     0.00300
Br732      Br  0.68303803  0.97447216  0.00578749    -0.04100
Br733      Br  0.59043413  0.92496850  0.04861122     0.00400
Br734      Br  0.67687746  0.90779398  0.48722173    -0.03400
Br735      Br  0.66380934  0.89567312  0.09866235    -0.04300
Br736      Br  0.73495040  0.00609381  0.04296315    -0.00300
C737        C  0.50845779  0.13386350  0.14107186     0.01100
C738        C  0.52117590  0.15026757  0.16881147     0.03900
C739        C  0.53826786  0.14789208  0.18914634    -0.12100
C740        C  0.54331709  0.12963361  0.18097654     0.23200
C741        C  0.53032222  0.11296725  0.15394176    -0.12700
C742        C  0.51326605  0.11524986  0.13368094     0.04600
C743        C  0.56375097  0.12912802  0.19800793     0.27100
C744        C  0.58516964  0.13831100  0.17879986    -0.13400
C745        C  0.60439756  0.13721446  0.19393410     0.05200
C746        C  0.60252398  0.12742314  0.22866535    -0.09400
C747        C  0.58095318  0.11754161  0.24744033     0.06000
C748        C  0.56156835  0.11842685  0.23212126    -0.13700
Br749      Br  0.53654138  0.08729645  0.14411045    -0.05800
Br750      Br  0.51579966  0.17641312  0.17829371    -0.00200
Br751      Br  0.63308951  0.14822075  0.16637440     0.00300
Br752      Br  0.53209053  0.10523118  0.25782848    -0.04100
Br753      Br  0.49877605  0.09426167  0.09309693     0.00400
Br754      Br  0.55489213  0.16960833  0.22818066    -0.03400
Br755      Br  0.58825804  0.15255849  0.13170293    -0.04300
Br756      Br  0.57821719  0.10332712  0.29439516    -0.00300
C757        C  0.53064467  0.12736767  0.49694510     0.01100
C758        C  0.52906723  0.10859699  0.47519093     0.03900
C759        C  0.54944401  0.11037144  0.45874580    -0.12100
C760        C  0.57160375  0.13056213  0.46431889     0.23200
C761        C  0.57370434  0.14807190  0.48882274    -0.12700
C762        C  0.55342984  0.14693563  0.50440697     0.04600
C763        C  0.59163470  0.13552627  0.43962999     0.27100
C764        C  0.60832870  0.12851214  0.44824054    -0.13400
C765        C  0.62670075  0.13282649  0.42369086     0.05200
C766        C  0.62812670  0.14371460  0.38950453    -0.09400
C767        C  0.61230195  0.15262315  0.38285444     0.06000
C768        C  0.59417145  0.14823337  0.40759559    -0.13700
Br769      Br  0.60464393  0.17436461  0.49925940    -0.05800
Br770      Br  0.49923202  0.08020546  0.46757067    -0.00200
Br771      Br  0.64937728  0.12337865  0.43842590     0.00300
Br772      Br  0.57240946  0.15980893  0.39784069    -0.04100
Br773      Br  0.55772457  0.17397238  0.53255863     0.00400
Br774      Br  0.54718093  0.08550932  0.42741634    -0.03400
Br775      Br  0.60569199  0.11286541  0.49388818    -0.04300
Br776      Br  0.61543853  0.17225815  0.34136982    -0.00300
C777        C  0.47389067  0.17250189  0.44508551     0.01100
C778        C  0.45497184  0.16603247  0.41994145     0.03900
C779        C  0.45357002  0.18345395  0.39858365    -0.12100
C780        C  0.47029995  0.20754253  0.40262271     0.23200
C781        C  0.48921319  0.21416258  0.42676068    -0.12700
C782        C  0.49177814  0.19691039  0.44646190     0.04600
C783        C  0.46793979  0.22624892  0.38230606     0.27100
C784        C  0.48049236  0.23567437  0.34980894    -0.13400
C785        C  0.48016443  0.25496769  0.33271520     0.05200
C786        C  0.46760009  0.26533000  0.34829824    -0.09400
C787        C  0.45464354  0.25555241  0.38050988     0.06000
C788        C  0.45455942  0.23590415  0.39705205    -0.13700
Br789      Br  0.51089906  0.24749490  0.43452141    -0.05800
Br790      Br  0.43064169  0.13351435  0.41312011    -0.00200
Br791      Br  0.49647881  0.26676158  0.28731365     0.00300
Br792      Br  0.43655903  0.22243224  0.44063901    -0.04100
Br793      Br  0.52040239  0.20829456  0.47492889     0.00400
Br794      Br  0.42828675  0.17466510  0.36403169    -0.03400
Br795      Br  0.49844180  0.22229182  0.32898742    -0.04300
Br796      Br  0.43851916  0.27013108  0.40400345    -0.00300
C797        C  0.46715687  0.19633900  0.09617588     0.01100
C798        C  0.47206444  0.21592046  0.07347035     0.03900
C799        C  0.47654357  0.23777902  0.08852907    -0.12100
C800        C  0.47426674  0.23991432  0.12607946     0.23200
C801        C  0.46724994  0.22001278  0.14844897    -0.12700
C802        C  0.46433083  0.19857904  0.13404288     0.04600
C803        C  0.47824604  0.26264547  0.14254195     0.27100
C804        C  0.49934077  0.27727818  0.16142996    -0.13400
C805        C  0.50094332  0.29555077  0.18401875     0.05200
C806        C  0.48155380  0.29951377  0.18757100    -0.09400
C807        C  0.46191683  0.28721035  0.16436756     0.06000
C808        C  0.45997566  0.26834705  0.14276979    -0.13700
Br809      Br  0.46118821  0.22222931  0.19924493    -0.05800
Br810      Br  0.47048407  0.21270377  0.02142020    -0.00200
Br811      Br  0.52992496  0.31549256  0.20982713     0.00300
Br812      Br  0.43153963  0.24905225  0.11553596    -0.04100
Br813      Br  0.45705501  0.17308880  0.16776649     0.00400
Br814      Br  0.48579072  0.26497192  0.05775208    -0.03400
Br815      Br  0.52561944  0.27153088  0.15757235    -0.04300
Br816      Br  0.43732473  0.29548029  0.16257252    -0.00300
C817        C  0.27849685  0.04701600  0.41224049     0.01100
C818        C  0.29967080  0.04956056  0.39736922     0.03900
C819        C  0.32113052  0.06185957  0.41690806    -0.12100
C820        C  0.32169556  0.07154889  0.45143074     0.23200
C821        C  0.30125469  0.07127707  0.46432523    -0.12700
C822        C  0.28020260  0.06018089  0.44388972     0.04600
C823        C  0.34344820  0.08098956  0.47454695     0.27100
C824        C  0.34812380  0.06510735  0.49413502    -0.13400
C825        C  0.36957500  0.07330196  0.01304490     0.05200
C826        C  0.38628388  0.09773138  0.01393656    -0.09400
C827        C  0.38103804  0.11385181  0.49612959     0.06000
C828        C  0.35988308  0.10544780  0.47597931    -0.13700
Br829      Br  0.30174350  0.08489262  0.01090111    -0.05800
Br830      Br  0.29996865  0.03688324  0.35024847    -0.00200
Br831      Br  0.37604325  0.05088825  0.03764458     0.00300
Br832      Br  0.35401122  0.12723053  0.44847180    -0.04100
Br833      Br  0.25468823  0.06565626  0.45685292     0.00400
Br834      Br  0.34992375  0.06504988  0.39707162    -0.03400
Br835      Br  0.32525915  0.03176760  0.49397902    -0.04300
Br836      Br  0.40355837  0.14722652  0.49723631    -0.00300
C837        C  0.18516548  0.03009036  0.47279565     0.01100
C838        C  0.16914529  0.03875542  0.46823660     0.03900
C839        C  0.17142873  0.05779413  0.48934897    -0.12100
C840        C  0.18950159  0.06818515  0.51535689     0.23200
C841        C  0.20350599  0.05774529  0.02300431    -0.12700
C842        C  0.20060859  0.03796970  0.50299532     0.04600
C843        C  0.19365317  0.09021550  0.03386988     0.27100
C844        C  0.20803699  0.11232644  0.01744010    -0.13400
C845        C  0.21022521  0.13313798  0.03306903     0.05200
C846        C  0.19856983  0.13202511  0.06590175    -0.09400
C847        C  0.18434972  0.10977383  0.08247272     0.06000
C848        C  0.18167598  0.08895982  0.06620079    -0.13700
Br849      Br  0.22759611  0.07147170  0.05982029    -0.05800
Br850      Br  0.14310977  0.02391263  0.43440365    -0.00200
Br851      Br  0.22717457  0.16269587  0.00730438     0.00300
Br852      Br  0.16058539  0.05844998  0.08698629    -0.04100
Br853      Br  0.21747768  0.02184675  0.51771705     0.00400
Br854      Br  0.15033262  0.07034797  0.48186419    -0.03400
Br855      Br  0.22368686  0.11377616  0.47239729    -0.04300
Br856      Br  0.16844110  0.10742369  0.12763591    -0.00300
C857        C  0.20248855  0.15513377  0.22019679     0.01100
C858        C  0.21513495  0.14370338  0.20897171     0.03900
C859        C  0.21706666  0.12754544  0.23199153    -0.12100
C860        C  0.20515639  0.12146725  0.26539966     0.23200
C861        C  0.19377511  0.13384083  0.27772689    -0.12700
C862        C  0.19344679  0.15149426  0.25580985     0.04600
C863        C  0.20282606  0.10044605  0.28502097     0.27100
C864        C  0.18777849  0.07779198  0.27059479    -0.13400
C865        C  0.18809462  0.05788204  0.28477152     0.05200
C866        C  0.20237709  0.06021840  0.31511221    -0.09400
C867        C  0.21651837  0.08276833  0.33078947     0.06000
C868        C  0.21717685  0.10292372  0.31520802    -0.13700
Br869      Br  0.17730465  0.12548118  0.32341068    -0.05800
Br870      Br  0.23093109  0.15085451  0.16258304    -0.00200
Br871      Br  0.17028865  0.02781516  0.26033445     0.00300
Br872      Br  0.23816972  0.13397107  0.33446621    -0.04100
Br873      Br  0.18055334  0.17031842  0.27475674     0.00400
Br874      Br  0.23527579  0.11282360  0.21724052    -0.03400
Br875      Br  0.16708429  0.07419591  0.23050341    -0.04300
Br876      Br  0.23420656  0.08601305  0.37444566    -0.00300
C877        C  0.47097891  0.87057802  0.01549096     0.01100
C878        C  0.44874335  0.85796748  0.99832543     0.03900
C879        C  0.42820786  0.85453430  0.01606490    -0.12100
C880        C  0.42977927  0.86474506  0.05031165     0.23200
C881        C  0.45212685  0.87943031  0.06590228    -0.12700
C882        C  0.47268483  0.88204700  0.04889659     0.04600
C883        C  0.40790559  0.85919456  0.07057237     0.27100
C884        C  0.39728858  0.87342318  0.06658415    -0.13400
C885        C  0.37725585  0.86877787  0.08723875     0.05200
C886        C  0.36847026  0.85051635  0.11345023    -0.09400
C887        C  0.37777601  0.83484529  0.11462293     0.06000
C888        C  0.39743816  0.83924972  0.09334811    -0.13700
Br889      Br  0.45433407  0.89550665  0.11099373    -0.05800
Br890      Br  0.44630356  0.84632678  0.44965791    -0.00200
Br891      Br  0.36238326  0.88777395  0.07932865     0.00300
Br892      Br  0.41037649  0.81814211  0.09570356    -0.04100
Br893      Br  0.50277335  0.90005578  0.07277144     0.00400
Br894      Br  0.39770754  0.83515215  0.99405885    -0.03400
Br895      Br  0.41081056  0.89974596  0.03345090    -0.04300
Br896      Br  0.36324526  0.80671755  0.14442642    -0.00300
C897        C  0.48896467  0.85945261  0.35842852     0.01100
C898        C  0.46566748  0.84037876  0.35563973     0.03900
C899        C  0.44849400  0.84302177  0.33637414    -0.12100
C900        C  0.45472552  0.86427003  0.31792261     0.23200
C901        C  0.47848967  0.88238710  0.31731936    -0.12700
C902        C  0.49558128  0.88011668  0.33785782     0.04600
C903        C  0.43598928  0.86773651  0.30066924     0.27100
C904        C  0.43164909  0.86412546  0.26313251    -0.13400
C905        C  0.41285324  0.86586631  0.24746570     0.05200
C906        C  0.39736222  0.86967462  0.26949458    -0.09400
C907        C  0.40206827  0.87393185  0.30687262     0.06000
C908        C  0.42158633  0.87338403  0.32231864    -0.13700
Br909      Br  0.48722876  0.91083228  0.28997576    -0.05800
Br910      Br  0.45709962  0.81050925  0.37877046    -0.00200
Br911      Br  0.40883614  0.86374537  0.19567918     0.00300
Br912      Br  0.42802964  0.87926662  0.37352024    -0.04100
Br913      Br  0.52745307  0.90600874  0.33960226     0.00400
Br914      Br  0.41602345  0.81807523  0.33730706    -0.03400
Br915      Br  0.45056086  0.85537235  0.23356148    -0.04300
Br916      Br  0.38105099  0.87929093  0.33718690    -0.00300
C917        C  0.23318008  0.94964679  0.34382107     0.01100
C918        C  0.25645205  0.95375097  0.34745398     0.03900
C919        C  0.26391786  0.94011025  0.32727745    -0.12100
C920        C  0.24790443  0.92158190  0.30461346     0.23200
C921        C  0.22403668  0.91586978  0.30415299    -0.12700
C922        C  0.21677063  0.92996028  0.32342763     0.04600
C923        C  0.25635059  0.90832315  0.28137925     0.27100
C924        C  0.26590209  0.91687221  0.24668760    -0.13400
C925        C  0.27674306  0.90614990  0.22675793     0.05200
C926        C  0.27840625  0.88697025  0.24184381    -0.09400
C927        C  0.26541647  0.87631684  0.27369843     0.06000
C928        C  0.25534120  0.88742732  0.29413149    -0.13700
Br929      Br  0.20137223  0.88891956  0.27676261    -0.05800
Br930      Br  0.27815086  0.97805616  0.37974584    -0.00200
Br931      Br  0.28855121  0.91756210  0.17880277     0.00300
Br932      Br  0.24117307  0.87465346  0.34051522    -0.04100
Br933      Br  0.18406741  0.92201161  0.32294103     0.00400
Br934      Br  0.29631275  0.94716340  0.32969783    -0.03400
Br935      Br  0.26481237  0.94389866  0.22728919    -0.04300
Br936      Br  0.25952279  0.84528437  0.28753223    -0.00300
C937        C  0.43286394  0.05017796  0.08180152     0.01100
C938        C  0.42025606  0.02922826  0.06107498     0.03900
C939        C  0.40855265  0.00680531  0.07840655    -0.12100
C940        C  0.41117505  0.00481086  0.11612697     0.23200
C941        C  0.42565889  0.02541067  0.13609345    -0.12700
C942        C  0.43487247  0.04786367  0.11983263     0.04600
C943        C  0.39787554  0.98153294  0.13562378     0.27100
C944        C  0.37925027  0.97747316  0.15947125    -0.13400
C945        C  0.36756861  0.95623136  0.17953807     0.05200
C946        C  0.37307031  0.93798747  0.17398579    -0.09400
C947        C  0.39250668  0.94254009  0.15175841     0.06000
C948        C  0.40493003  0.96421786  0.13291074    -0.13700
Br949      Br  0.43257490  0.02275031  0.18638380    -0.05800
Br950      Br  0.41729680  0.03121112  0.00935093    -0.00200
Br951      Br  0.34464542  0.95262289  0.21552600     0.00300
Br952      Br  0.43199592  0.97045461  0.10397456    -0.04100
Br953      Br  0.44836969  0.07485676  0.15164027     0.00400
Br954      Br  0.38771179  0.97892547  0.05097727    -0.03400
Br955      Br  0.36926520  0.00085831  0.16412292    -0.04300
Br956      Br  0.40349785  0.91987041  0.14997683    -0.00300
C957        C  0.95931554  0.81463568  0.21726382     0.01100
C958        C  0.94927264  0.79576291  0.24253788     0.03900
C959        C  0.93061361  0.79288503  0.26514618    -0.12100
C960        C  0.92202694  0.80892423  0.26322070     0.23200
C961        C  0.93317483  0.82879546  0.24039093    -0.12700
C962        C  0.95167668  0.83165002  0.21746363     0.04600
C963        C  0.90065501  0.80441381  0.28401286     0.27100
C964        C  0.87806222  0.78856048  0.27026223    -0.13400
C965        C  0.85771223  0.78548298  0.28839390     0.05200
C966        C  0.85989949  0.79893057  0.31979029    -0.09400
C967        C  0.88260123  0.81390103  0.33446657     0.06000
C968        C  0.90284070  0.81642906  0.31680037    -0.13700
Br969      Br  0.92271166  0.85193810  0.24025509    -0.05800
Br970      Br  0.95975763  0.77284747  0.24582047    -0.00200
Br971      Br  0.82706764  0.76397185  0.26847923     0.00300
Br972      Br  0.93373982  0.83692161  0.33684752    -0.04100
Br973      Br  0.96689692  0.85946060  0.18721665     0.00400
Br974      Br  0.91613076  0.76654186  0.29835788    -0.03400
Br975      Br  0.87514154  0.77202534  0.22532807    -0.04300
Br976      Br  0.88631028  0.83104074  0.37903422    -0.00300
C977        C  0.93429249  0.79905116  0.05910708     0.01100
C978        C  0.91243397  0.78723921  0.07718903     0.03900
C979        C  0.89271180  0.78803380  0.06305938    -0.12100
C980        C  0.89483445  0.80071394  0.03099232     0.23200
C981        C  0.91661121  0.81237637  0.01281974    -0.12700
C982        C  0.93620188  0.81135161  0.02658571     0.04600
C983        C  0.87402390  0.80049225  0.51418986     0.27100
C984        C  0.86047045  0.78280190  0.48871267    -0.13400
C985        C  0.84358186  0.78478020  0.46758220     0.05200
C986        C  0.83993405  0.80433900  0.47208198    -0.09400
C987        C  0.85293118  0.82164830  0.49841941     0.06000
C988        C  0.86979196  0.81965906  0.01984146    -0.13700
Br989      Br  0.91957510  0.82970841  0.46866361    -0.05800
Br990      Br  0.90974224  0.77087435  0.12208695    -0.00200
Br991      Br  0.82708524  0.76173173  0.43003200     0.00300
Br992      Br  0.88837093  0.84382704  0.05482409    -0.04100
Br993      Br  0.96536749  0.82593691  0.99969265     0.00400
Br994      Br  0.86280181  0.77205319  0.08760870    -0.03400
Br995      Br  0.86653550  0.75686805  0.48071010    -0.04300
Br996      Br  0.84980545  0.84968547  0.00158113    -0.00300
C997        C  0.14060698  0.93072632  0.43217464     0.01100
C998        C  0.13919919  0.92720091  0.46997278     0.03900
C999        C  0.11821263  0.90950238  0.48575857    -0.12100
C1000       C  0.09843475  0.89523548  0.46383871     0.23200
C1001       C  0.10010131  0.89817127  0.42589849    -0.12700
C1002       C  0.12118264  0.91574100  0.41011649     0.04600
C1003       C  0.07586814  0.87775775  0.98110164     0.27100
C1004       C  0.07002145  0.85387546  0.98464380    -0.13400
C1005       C  0.04957168  0.83785983  0.00370696     0.05200
C1006       C  0.03604920  0.84615402  0.02215495    -0.09400
C1007       C  0.04105391  0.86972256  0.01638993     0.06000
C1008       C  0.06055279  0.88526056  0.99522000    -0.13700
Br1009     Br  0.07306698  0.87884236  0.39582006    -0.05800
Br1010     Br  0.16569570  0.94775694  0.00022500    -0.00200
Br1011     Br  0.04058873  0.80482975  0.00459210     0.00300
Br1012     Br  0.06673223  0.91708311  0.98617946    -0.04100
Br1013     Br  0.12341052  0.91925098  0.35822848     0.00400
Br1014     Br  0.11626795  0.90549585  0.03769881    -0.03400
Br1015     Br  0.09085070  0.84354607  0.46501630    -0.04300
Br1016     Br  0.02107620  0.88081073  0.03730846    -0.00300
C1017       C  0.06274015  0.86510484  0.17943673     0.01100
C1018       C  0.07119111  0.86303822  0.21376000     0.03900
C1019       C  0.09119361  0.88246744  0.22902406    -0.12100
C1020       C  0.10227797  0.90443375  0.21097153     0.23200
C1021       C  0.09399670  0.90656005  0.17667878    -0.12700
C1022       C  0.07463751  0.88685041  0.16060181     0.04600
C1023       C  0.12090776  0.92569506  0.23000095     0.27100
C1024       C  0.11419035  0.93785791  0.25456979    -0.13400
C1025       C  0.13121732  0.95598477  0.27635964     0.05200
C1026       C  0.15518915  0.96172903  0.27453399    -0.09400
C1027       C  0.16222269  0.95126262  0.24714734     0.06000
C1028       C  0.14501707  0.93310927  0.22512094    -0.13700
Br1029     Br  0.10860340  0.93685900  0.15262023    -0.05800
Br1030     Br  0.05412196  0.83438446  0.24166803    -0.00200
Br1031     Br  0.12131305  0.97291612  0.30875365     0.00300
Br1032     Br  0.15416161  0.91752005  0.18934493    -0.04100
Br1033     Br  0.06498105  0.88978698  0.11240020     0.00400
Br1034     Br  0.10298122  0.87936023  0.27553021    -0.03400
Br1035     Br  0.08130647  0.92879483  0.25956382    -0.04300
Br1036     Br  0.19504221  0.96082804  0.24050979    -0.00300
C1037       C  0.10032402  0.71433492  0.50271302     0.01100
C1038       C  0.10701842  0.72264629  0.03887537     0.03900
C1039       C  0.09845609  0.73643339  0.05576628    -0.12100
C1040       C  0.08224165  0.74122531  0.03773095     0.23200
C1041       C  0.07600266  0.73366347  0.50146030    -0.12700
C1042       C  0.08496357  0.72029773  0.48400952     0.04600
C1043       C  0.06941514  0.75124682  0.05853481     0.27100
C1044       C  0.04861525  0.73579732  0.07742122    -0.13400
C1045       C  0.03589522  0.74474032  0.09646748     0.05200
C1046       C  0.04377653  0.76922849  0.09663341    -0.09400
C1047       C  0.06535404  0.78481315  0.07979170     0.06000
C1048       C  0.07802652  0.77587516  0.06049776    -0.13700
Br1049     Br  0.05447877  0.74107178  0.47629716    -0.05800
Br1050     Br  0.12699254  0.71441928  0.06667243    -0.02000
Br1051     Br  0.00712170  0.72330202  0.12109690     0.00300
Br1052     Br  0.10676057  0.79727340  0.03589049    -0.04100
Br1053     Br  0.07373730  0.70778663  0.43609139     0.00400
Br1054     Br  0.10835227  0.74836964  0.10437019    -0.03400
Br1055     Br  0.03709026  0.70214779  0.07593989    -0.04300
Br1056     Br  0.07757037  0.81851277  0.08395722    -0.00300
C1057       C  0.17318615  0.70312912  0.05401949     0.01100
C1058       C  0.17851645  0.69640358  0.08754921     0.03900
C1059       C  0.19589522  0.71369785  0.11038260    -0.12100
C1060       C  0.20820208  0.73759604  0.09939423     0.23200
C1061       C  0.20258565  0.74428728  0.06617151    -0.12700
C1062       C  0.18485901  0.72726066  0.04397027     0.04600
C1063       C  0.22856348  0.75561378  0.12060687     0.27100
C1064       C  0.22528471  0.76894184  0.14782271    -0.13400
C1065       C  0.24494745  0.78816975  0.16430242     0.05200
C1066       C  0.26802475  0.79476710  0.15257413    -0.09400
C1067       C  0.27116119  0.78081159  0.12589034     0.06000
C1068       C  0.25150778  0.76114723  0.11048839    -0.13700
Br1069     Br  0.22060821  0.77661501  0.04961242    -0.05800
Br1070     Br  0.16376112  0.66339888  0.10050689    -0.00200
Br1071     Br  0.24011168  0.80456184  0.20414531     0.00300
Br1072     Br  0.25576971  0.74214409  0.07404869    -0.04100
Br1073     Br  0.17670903  0.73729373  0.99948584     0.00400
Br1074     Br  0.20418840  0.70457044  0.15539629    -0.03400
Br1075     Br  0.19373955  0.76112323  0.16161236    -0.04300
Br1076     Br  0.30211281  0.78918219  0.10791597    -0.00300
C1077       C  0.29667373  0.81372998  0.31123601     0.01100
C1078       C  0.28820387  0.78906726  0.30786774     0.03900
C1079       C  0.26875265  0.77284237  0.32821763    -0.12100
C1080       C  0.25825023  0.78097040  0.35351621     0.23200
C1081       C  0.26848213  0.80541891  0.36049190    -0.12700
C1082       C  0.28812073  0.82183179  0.34009407     0.04600
C1083       C  0.23641939  0.76345642  0.37235108     0.27100
C1084       C  0.21422977  0.75659055  0.35665290    -0.13400
C1085       C  0.19371546  0.73755070  0.37130266     0.05200
C1086       C  0.19526459  0.72540610  0.40201323    -0.09400
C1087       C  0.21749967  0.73252489  0.41798185     0.06000
C1088       C  0.23795734  0.75161106  0.40333143    -0.13700
Br1089     Br  0.25469338  0.81624173  0.39680768    -0.05800
Br1090     Br  0.30387658  0.77710985  0.27674156    -0.00200
Br1091     Br  0.16381899  0.72673563  0.34712386     0.00300
Br1092     Br  0.26832906  0.76127046  0.42499765    -0.04100
Br1093     Br  0.30305177  0.85498208  0.35255036     0.00400
Br1094     Br  0.25562774  0.73925727  0.32015836    -0.03400
Br1095     Br  0.21216654  0.77279634  0.31412892    -0.04300
Br1096     Br  0.22020947  0.71623096  0.45990532    -0.00300
C1097       C  0.89924536  0.61143573  0.24774788     0.01100
C1098       C  0.91904586  0.61984973  0.22449617     0.03900
C1099       C  0.92772011  0.64174176  0.20664850    -0.12100
C1100       C  0.91709680  0.65584982  0.21211709     0.23200
C1101       C  0.89716687  0.64746227  0.23489096    -0.12700
C1102       C  0.88812839  0.62523293  0.25236324     0.04600
C1103       C  0.92849768  0.68026770  0.19631753     0.27100
C1104       C  0.94860663  0.69839101  0.21343576    -0.13400
C1105       C  0.96189152  0.72054567  0.19657108     0.05200
C1106       C  0.95426458  0.72566511  0.16332753    -0.09400
C1107       C  0.93351035  0.70769708  0.14681453     0.06000
C1108       C  0.92109420  0.68491851  0.16276499    -0.13700
Br1109     Br  0.88227825  0.66648029  0.24186784    -0.05800
Br1110     Br  0.93498160  0.60171953  0.21737751    -0.00200
Br1111     Br  0.99181388  0.74283830  0.21820073     0.00300
Br1112     Br  0.89430856  0.65974559  0.13831491    -0.04100
Br1113     Br  0.85968102  0.61299866  0.28061565     0.00400
Br1114     Br  0.95443486  0.65266570  0.17446618    -0.03400
Br1115     Br  0.95832522  0.69244969  0.26001372    -0.04300
Br1116     Br  0.92142378  0.71434357  0.10326885    -0.00300
C1117       C  0.73086652  0.53537055  0.09292114     0.01100
C1118       C  0.74164631  0.52444158  0.07343825     0.03900
C1119       C  0.76154867  0.52416057  0.08764615    -0.12100
C1120       C  0.77016441  0.53379158  0.12211928     0.23200
C1121       C  0.76003263  0.54540704  0.14115845    -0.12700
C1122       C  0.74054535  0.54636921  0.12650547     0.04600
C1123       C  0.78819369  0.52970802  0.14023500     0.27100
C1124       C  0.78104440  0.50830674  0.15878447    -0.13400
C1125       C  0.79676734  0.50603346  0.18232079     0.05200
C1126       C  0.81995908  0.52503206  0.18691046    -0.09400
C1127       C  0.82777737  0.54556110  0.16537416     0.06000
C1128       C  0.81182858  0.54786424  0.14212562    -0.13700
Br1129     Br  0.77231196  0.55904235  0.18823183    -0.05800
Br1130     Br  0.72917570  0.50928474  0.02753106    -0.00200
Br1131     Br  0.78598383  0.47698558  0.20929490     0.00300
Br1132     Br  0.82178245  0.57628896  0.11405723    -0.04100
Br1133     Br  0.72589854  0.56083267  0.15425318     0.00400
Br1134     Br  0.77685417  0.51012362  0.06042468    -0.03400
Br1135     Br  0.74926684  0.48241592  0.15320364    -0.04300
Br1136     Br  0.85948332  0.57152228  0.16964243    -0.00300
C1137       C  0.70117564  0.52540504  0.43836043     0.01100
C1138       C  0.70633307  0.50694960  0.43234550     0.03900
C1139       C  0.72565826  0.51079234  0.41073093    -0.12100
C1140       C  0.73918724  0.53266187  0.39317820     0.23200
C1141       C  0.73242786  0.55012590  0.39557639    -0.12700
C1142       C  0.71376432  0.54675238  0.41863062     0.04600
C1143       C  0.76112771  0.53745307  0.37388872     0.27100
C1144       C  0.78295418  0.54891654  0.39224077    -0.13400
C1145       C  0.80307863  0.54972568  0.37665752     0.05200
C1146       C  0.80152935  0.53942789  0.34229933    -0.09400
C1147       C  0.78005557  0.52963040  0.32286624     0.06000
C1148       C  0.75994146  0.52866880  0.33860784    -0.13700
Br1149     Br  0.74936728  0.57890665  0.36791095    -0.05800
Br1150     Br  0.68653622  0.47608354  0.45311095    -0.00200
Br1151     Br  0.83213878  0.56309237  0.40390077     0.00300
Br1152     Br  0.73049712  0.51481812  0.31234627    -0.04100
Br1153     Br  0.70698614  0.57222148  0.42433929     0.00400
Br1154     Br  0.73433715  0.48643931  0.40647405    -0.03400
Br1155     Br  0.78494954  0.56274861  0.43938495    -0.04300
Br1156     Br  0.77799787  0.51752750  0.27455121    -0.00300
C1157       C  0.94108923  0.56797215  0.32628593     0.01100
C1158       C  0.95051008  0.55338206  0.33636128     0.03900
C1159       C  0.97206099  0.56291860  0.35533525    -0.12100
C1160       C  0.98413376  0.58709380  0.36457593     0.23200
C1161       C  0.97491285  0.60178117  0.35419690    -0.12700
C1162       C  0.95344892  0.59225707  0.33523497     0.04600
C1163       C  0.00732539  0.59778649  0.38313102     0.27100
C1164       C  0.00880134  0.59959318  0.42117403    -0.13400
C1165       C  0.03085256  0.61302536  0.43840745     0.05200
C1166       C  0.05177748  0.62454705  0.41748075    -0.09400
C1167       C  0.04990383  0.62252393  0.37880164     0.06000
C1168       C  0.02783599  0.60887196  0.36213169    -0.13700
Br1169     Br  0.99184342  0.63506413  0.36627077    -0.05800
Br1170     Br  0.93356363  0.52026702  0.32527834    -0.00200
Br1171     Br  0.03140117  0.61761607  0.49026012     0.00300
Br1172     Br  0.02522260  0.60599288  0.30980630    -0.04100
Br1173     Br  0.94080275  0.61258565  0.32246393     0.00400
Br1174     Br  0.98506047  0.54300357  0.36897921    -0.03400
Br1175     Br  0.98020269  0.58441307  0.44935733    -0.04300
Br1176     Br  0.07674679  0.63864169  0.34661403    -0.00300
C1177       C  0.82173933  0.29567309  0.43941234     0.01100
C1178       C  0.80102512  0.29580541  0.42866119     0.03900
C1179       C  0.78386624  0.27705442  0.40787777    -0.12100
C1180       C  0.78769364  0.25846681  0.39683633     0.23200
C1181       C  0.80924250  0.25935938  0.40469171    -0.12700
C1182       C  0.82603065  0.27764029  0.42666544     0.04600
C1183       C  0.76823386  0.23689719  0.38024911     0.27100
C1184       C  0.75340511  0.21767582  0.40257376    -0.13400
C1185       C  0.73485162  0.19709961  0.38718014     0.05200
C1186       C  0.73037327  0.19610484  0.34965733    -0.09400
C1187       C  0.74542588  0.21525828  0.32730198     0.06000
C1188       C  0.76449785  0.23552398  0.34254799    -0.13700
Br1189     Br  0.81497063  0.23466234  0.38686714    -0.05800
Br1190     Br  0.79565247  0.32116758  0.94417495    -0.00200
Br1191     Br  0.71530031  0.17042602  0.41762503     0.00300
Br1192     Br  0.78543259  0.26159982  0.31209161    -0.04100
Br1193     Br  0.85345851  0.27626609  0.44215519     0.00400
Br1194     Br  0.75441827  0.27591100  0.39655711    -0.03400
Br1195     Br  0.75800802  0.22000593  0.45447666    -0.04300
Br1196     Br  0.74045456  0.21369819  0.27574594    -0.00300
C1197       C  0.80139480  0.26647297  0.09424612     0.01100
C1198       C  0.80400863  0.25562313  0.12579805     0.03900
C1199       C  0.78418562  0.23632773  0.14166367    -0.12100
C1200       C  0.76160871  0.22772304  0.12621528     0.23200
C1201       C  0.75915173  0.23771333  0.09370290    -0.12700
C1202       C  0.77891097  0.25705193  0.07784027     0.04600
C1203       C  0.74030767  0.21034620  0.14661846     0.27100
C1204       C  0.73221934  0.18584046  0.14470772    -0.13400
C1205       C  0.71357487  0.16993284  0.16724299     0.05200
C1206       C  0.70300373  0.17857942  0.19207734    -0.09400
C1207       C  0.70966362  0.20290769  0.19096498     0.06000
C1208       C  0.72859201  0.21871931  0.16916863    -0.13700
Br1209     Br  0.72842500  0.22532449  0.07170788    -0.05800
Br1210     Br  0.83432066  0.26841744  0.14935098    -0.00200
Br1211     Br  0.70343083  0.13660844  0.16442470     0.00300
Br1212     Br  0.73944044  0.25226858  0.17158353    -0.04100
Br1213     Br  0.77496950  0.27049028  0.03347460     0.00400
Br1214     Br  0.78763092  0.22234469  0.18580716    -0.03400
Br1215     Br  0.74748647  0.17436206  0.11214448    -0.04300
Br1216     Br  0.69244899  0.21484652  0.21837269    -0.00300
C1217       C  0.86396142  0.46997747  0.22726995     0.01100
C1218       C  0.85191042  0.46110881  0.19401969     0.03900
C1219       C  0.85195703  0.44175160  0.17687300    -0.12100
C1220       C  0.86434776  0.43125345  0.19238240     0.23200
C1221       C  0.87666364  0.44021726  0.22520293    -0.12700
C1222       C  0.87586975  0.45902476  0.24311471     0.04600
C1223       C  0.86450339  0.41098199  0.17366749     0.27100
C1224       C  0.84798893  0.38746626  0.18301209    -0.13400
C1225       C  0.84629803  0.36836786  0.16225990     0.05200
C1226       C  0.86116434  0.37274132  0.13212904    -0.09400
C1227       C  0.87811425  0.39633585  0.12356890     0.06000
C1228       C  0.87989931  0.41530372  0.14440441    -0.13700
Br1229     Br  0.89496606  0.42692268  0.24509743    -0.05800
Br1230     Br  0.83565588  0.47562398  0.17095123    -0.00200
Br1231     Br  0.82211356  0.33649633  0.17280267     0.00300
Br1232     Br  0.90251755  0.44747271  0.13158501    -0.04100
Br1233     Br  0.88898925  0.46799521  0.29094805     0.00400
Br1234     Br  0.83530893  0.42976558  0.13157889    -0.03400
Br1235     Br  0.82668679  0.38170581  0.22281082    -0.04300
Br1236     Br  0.89819660  0.40303246  0.08181943    -0.00300
C1237       C  0.86048739  0.39644939  0.48209191     0.01100
C1238       C  0.87188037  0.40729162  0.44935461     0.03900
C1239       C  0.86995665  0.42645559  0.43499237    -0.12100
C1240       C  0.85634457  0.43486529  0.45279470     0.23200
C1241       C  0.84544688  0.42451747  0.48597796    -0.12700
C1242       C  0.84728108  0.40527517  0.50036517     0.04600
C1243       C  0.85261837  0.45359051  0.43506202     0.27100
C1244       C  0.86999286  0.47766210  0.43734035    -0.13400
C1245       C  0.86951475  0.49443785  0.41331385     0.05200
C1246       C  0.85061046  0.48750032  0.38853311    -0.09400
C1247       C  0.83151280  0.46403847  0.39029703     0.06000
C1248       C  0.83283450  0.44706255  0.41258684    -0.13700
Br1249     Br  0.82818189  0.43696103  0.51178366    -0.05800
Br1250     Br  0.88849282  0.39462421  0.42235046    -0.00200
Br1251     Br  0.89593867  0.52609973  0.41239490     0.00300
Br1252     Br  0.80788472  0.41455527  0.41130164    -0.04100
Br1253     Br  0.83150928  0.39109943  0.04522963     0.00400
Br1254     Br  0.88570852  0.44110644  0.39028936    -0.03400
Br1255     Br  0.89449382  0.48733230  0.47335845    -0.04300
Br1256     Br  0.80321034  0.45504585  0.36234361    -0.00300
C1257       C  0.90141134  0.29054668  0.99622576     0.01100
C1258       C  0.89306555  0.26651008  0.00583068     0.03900
C1259       C  0.90224402  0.25312666  0.48846581    -0.12100
C1260       C  0.91917102  0.26321807  0.46058633     0.23200
C1261       C  0.92690582  0.28672620  0.45026491    -0.12700
C1262       C  0.91873224  0.30045180  0.46834528     0.04600
C1263       C  0.93140623  0.25074338  0.44482271     0.27100
C1264       C  0.95259510  0.25451130  0.46082276    -0.13400
C1265       C  0.96692625  0.24689275  0.44333114     0.05200
C1266       C  0.95970308  0.23402743  0.41012343    -0.09400
C1267       C  0.93846355  0.23041459  0.39386788     0.06000
C1268       C  0.92446727  0.23877304  0.41113966    -0.13700
Br1269     Br  0.94951203  0.30033213  0.41129293    -0.05800
Br1270     Br  0.86845073  0.25122374  0.04143874    -0.00200
Br1271     Br  0.99787011  0.25690927  0.46362621     0.00300
Br1272     Br  0.89599515  0.23447567  0.38833806    -0.04100
Br1273     Br  0.93305553  0.33345987  0.45516710     0.00400
Br1274     Br  0.89152212  0.22084664  0.00272473    -0.03400
Br1275     Br  0.96245040  0.27135044  0.00643971    -0.04300
Br1276     Br  0.92852691  0.21445561  0.34774557    -0.00300
C1277       C  0.14585741  0.20606956  0.18754774     0.01100
C1278       C  0.12971424  0.18911273  0.21237151     0.03900
C1279       C  0.11185240  0.19229052  0.22806938    -0.12100
C1280       C  0.10958500  0.21211199  0.21907356     0.23200
C1281       C  0.12509313  0.22877002  0.19401147    -0.12700
C1282       C  0.14276930  0.22546607  0.17752274     0.04600
C1283       C  0.09082781  0.21502963  0.23695912     0.27100
C1284       C  0.06853454  0.20612903  0.22048697    -0.13400
C1285       C  0.04894748  0.20271262  0.24128038     0.05200
C1286       C  0.05153725  0.20725381  0.27898154    -0.09400
C1287       C  0.07459871  0.21908926  0.29397630     0.06000
C1288       C  0.09411926  0.22295841  0.27300656    -0.13700
Br1289     Br  0.12222352  0.25628250  0.18292507    -0.05800
Br1290     Br  0.13107798  0.16103793  0.22574963    -0.00200
Br1291     Br  0.01885390  0.19107518  0.21791592     0.00300
Br1292     Br  0.12529801  0.23730002  0.29429064    -0.04100
Br1293     Br  0.16071684  0.24622375  0.13844977     0.00400
Br1294     Br  0.09046860  0.16958002  0.26293383    -0.03400
Br1295     Br  0.06469359  0.19698540  0.17008739    -0.04300
Br1296     Br  0.08007125  0.23049106  0.34318962    -0.00300
C1297       C  0.15666165  0.19210258  0.03226922     0.01100
C1298       C  0.16427859  0.21187866  0.00911618     0.03900
C1299       C  0.14782078  0.21425171  0.98706384    -0.12100
C1300       C  0.12378932  0.19692857  0.98805469     0.23200
C1301       C  0.11635891  0.17674965  0.00988445    -0.12700
C1302       C  0.13265883  0.17425592  0.03176057     0.04600
C1303       C  0.10583516  0.19995740  0.46742828     0.27100
C1304       C  0.09447862  0.21122851  0.48388013    -0.13400
C1305       C  0.07487358  0.21080090  0.46697967     0.05200
C1306       C  0.06681715  0.19956343  0.43302372    -0.09400
C1307       C  0.07819706  0.18812865  0.41668634     0.06000
C1308       C  0.09780766  0.18861234  0.43369095    -0.13700
Br1309     Br  0.08344158  0.15283734  0.01068762    -0.05800
Br1310     Br  0.19673837  0.23665811  0.00932995    -0.00200
Br1311     Br  0.05720783  0.22284031  0.49276132     0.00300
Br1312     Br  0.11325772  0.17285687  0.41174860    -0.04100
Br1313     Br  0.12169767  0.14609954  0.06109672     0.00400
Br1314     Br  0.15788124  0.24161637  0.45651116    -0.03400
Br1315     Br  0.10497606  0.22588353  0.03079572    -0.04300
Br1316     Br  0.06671121  0.17095317  0.37169405    -0.00300
C1317       C  0.86380360  0.06635723  0.06141364     0.01100
C1318       C  0.86058870  0.07834329  0.03176309     0.03900
C1319       C  0.88030474  0.09655490  0.01399949    -0.12100
C1320       C  0.90324624  0.10255494  0.02523526     0.23200
C1321       C  0.90650611  0.09142351  0.05565147    -0.12700
C1322       C  0.88690102  0.07351589  0.07386609     0.04600
C1323       C  0.92390198  0.11898762  0.50324581     0.27100
C1324       C  0.93263580  0.10960132  0.97679780    -0.13400
C1325       C  0.95183842  0.12481133  0.45509454     0.05200
C1326       C  0.96241267  0.14976821  0.45910515    -0.09400
C1327       C  0.95392997  0.15899311  0.48657345     0.06000
C1328       C  0.93481945  0.14358398  0.50855739    -0.13700
Br1329     Br  0.93806460  0.10038204  0.07148074    -0.05800
Br1330     Br  0.82944125  0.06875209  0.01314936    -0.00200
Br1331     Br  0.96359053  0.11060353  0.42059062     0.00300
Br1332     Br  0.92316424  0.15601420  0.54588265    -0.04100
Br1333     Br  0.89203080  0.05930082  0.11635866     0.00400
Br1334     Br  0.87612734  0.11307339  0.47362308    -0.03400
Br1335     Br  0.91796773  0.07568566  0.97064895    -0.04300
Br1336     Br  0.96705648  0.19259008  0.49365787    -0.00300
C1337       C  0.84829203  0.04405678  0.21671059     0.01100
C1338       C  0.85601091  0.03749160  0.24815041     0.03900
C1339       C  0.87236306  0.05511512  0.27171636    -0.12100
C1340       C  0.88063919  0.07923911  0.26415382     0.23200
C1341       C  0.87182835  0.08562458  0.23389447    -0.12700
C1342       C  0.85660470  0.06825119  0.20938277     0.04600
C1343       C  0.90194738  0.09807869  0.28253789     0.27100
C1344       C  0.90021901  0.11035617  0.31283835    -0.13400
C1345       C  0.92039926  0.13078341  0.32584170     0.05200
C1346       C  0.94236300  0.13915792  0.30818809    -0.09400
C1347       C  0.94397228  0.12623206  0.27843271     0.06000
C1348       C  0.92397081  0.10566296  0.26612422    -0.13700
Br1349     Br  0.88171442  0.11853135  0.22517138    -0.05800
Br1350     Br  0.84662171  0.00468107  0.25624568    -0.00200
Br1351     Br  0.91796580  0.14650788  0.36873257     0.00300
Br1352     Br  0.92645318  0.08788427  0.22583458    -0.04100
Br1353     Br  0.84792696  0.07796959  0.16500489     0.00400
Br1354     Br  0.88461602  0.04646538  0.31303149    -0.03400
Br1355     Br  0.87015672  0.09899360  0.33628348    -0.04300
Br1356     Br  0.97309630  0.13714577  0.25238278    -0.00300
C1357       C  0.94160605  0.37905241  0.08178226     0.01100
C1358       C  0.96283275  0.38926266  0.06142464     0.03900
C1359       C  0.98500766  0.40073392  0.07920935    -0.12100
C1360       C  0.98641855  0.40225009  0.11736090     0.23200
C1361       C  0.96557669  0.39345307  0.13764640    -0.12700
C1362       C  0.94339089  0.38219847  0.12026273     0.04600
C1363       C  0.00967566  0.41214747  0.13655862     0.27100
C1364       C  0.01899854  0.39723373  0.14502275    -0.13400
C1365       C  0.04026551  0.40600735  0.16465478     0.05200
C1366       C  0.05332528  0.43028870  0.17446837    -0.09400
C1367       C  0.04346770  0.44502716  0.16710258     0.06000
C1368       C  0.02165300  0.43587913  0.14851631    -0.13700
Br1369     Br  0.96766428  0.39641539  0.18991737    -0.05800
Br1370     Br  0.96229990  0.38689029  0.00929281    -0.00200
Br1371     Br  0.05042219  0.38393766  0.18014757     0.00300
Br1372     Br  0.00789817  0.45572119  0.13913348    -0.04100
Br1373     Br  0.91585793  0.37171540  0.15070595     0.00400
Br1374     Br  0.01378299  0.41398676  0.05149384    -0.03400
Br1375     Br  0.00249866  0.36455996  0.12955506    -0.04300
Br1376     Br  0.05982246  0.47786569  0.18130389    -0.00300
C1377       C  0.04858432  0.27978626  0.34183923     0.01100
C1378       C  0.07279339  0.29311509  0.35040255     0.03900
C1379       C  0.08746413  0.31429528  0.33131477    -0.12100
C1380       C  0.07789190  0.32251303  0.30417666     0.23200
C1381       C  0.05355077  0.30967642  0.29681889    -0.12700
C1382       C  0.03900439  0.28863094  0.31560531     0.04600
C1383       C  0.09195041  0.34637362  0.28721353     0.27100
C1384       C  0.09258953  0.36581511  0.30480733    -0.13400
C1385       C  0.09950315  0.38705152  0.28595682     0.05200
C1386       C  0.10649030  0.38947188  0.24874462    -0.09400
C1387       C  0.10806493  0.37051794  0.23231817     0.06000
C1388       C  0.10063358  0.34903605  0.25147698    -0.13700
Br1389     Br  0.03997165  0.32132022  0.26113845    -0.05800
Br1390     Br  0.08580685  0.28245164  0.38812036    -0.00200
Br1391     Br  0.09887786  0.41224360  0.31309698     0.00300
Br1392     Br  0.10137339  0.32269006  0.22864702    -0.04100
Br1393     Br  0.00545702  0.27234876  0.30606488     0.00400
Br1394     Br  0.12065375  0.33210962  0.34211563    -0.03400
Br1395     Br  0.08245331  0.36259798  0.35484696    -0.04300
Br1396     Br  0.11885672  0.37293548  0.18303982    -0.00300
C1397       C  0.17291402  0.46903066  0.30907464     0.01100
C1398       C  0.18585645  0.48709105  0.33463856     0.03900
C1399       C  0.20260002  0.48566116  0.35721993    -0.12100
C1400       C  0.20701342  0.46657798  0.35361442     0.23200
C1401       C  0.19344657  0.44806339  0.32940148    -0.12700
C1402       C  0.17664971  0.44935595  0.30704022     0.04600
C1403       C  0.22822313  0.46761094  0.37042307     0.27100
C1404       C  0.25019432  0.48112257  0.35351530    -0.13400
C1405       C  0.27018444  0.48070116  0.36682339     0.05200
C1406       C  0.26826811  0.46588326  0.39637537    -0.09400
C1407       C  0.24622939  0.45275991  0.41380744     0.06000
C1408       C  0.22633857  0.45383269  0.40102434    -0.13700
Br1409     Br  0.19922037  0.42165159  0.32502559    -0.05800
Br1410     Br  0.18155796  0.51434501  0.33785160    -0.00200
Br1411     Br  0.30002410  0.50077622  0.34373272     0.00300
Br1412     Br  0.19641165  0.43671216  0.42536511    -0.04100
Br1413     Br  0.16163353  0.42561301  0.27020952     0.00400
Br1414     Br  0.22034603  0.51027451  0.39211723    -0.03400
Br1415     Br  0.25278166  0.49994513  0.31127839    -0.04300
Br1416     Br  0.24342267  0.43474019  0.45679974    -0.00300
C1417       C  0.20013524  0.47127394  0.15130139     0.01100
C1418       C  0.21862385  0.47137117  0.17179047     0.03900
C1419       C  0.23912741  0.47410883  0.15438390    -0.12100
C1420       C  0.24177579  0.47759371  0.11661735     0.23200
C1421       C  0.22382204  0.47820459  0.09622118    -0.12700
C1422       C  0.20309613  0.47496856  0.11325817     0.04600
C1423       C  0.26215446  0.47823526  0.09727759     0.27100
C1424       C  0.28207563  0.49993989  0.08789221    -0.13400
C1425       C  0.29918396  0.50029864  0.06404540     0.05200
C1426       C  0.29670963  0.47895715  0.05008939    -0.09400
C1427       C  0.27738750  0.45725212  0.06109070     0.06000
C1428       C  0.26012200  0.45691729  0.08430665    -0.13700
Br1429     Br  0.22766653  0.48297353  0.04433918    -0.05800
Br1430     Br  0.21590240  0.46693555  0.22358855    -0.00200
Br1431     Br  0.32569740  0.52998267  0.54949390     0.00300
Br1432     Br  0.23252190  0.42725487  0.09622805    -0.04100
Br1433     Br  0.17954116  0.47685913  0.08377762     0.00400
Br1434     Br  0.26336747  0.47221962  0.18188800    -0.03400
Br1435     Br  0.28520622  0.52915778  0.10618557    -0.04300
Br1436     Br  0.27327980  0.42780883  0.04259423    -0.00300
C1437       C  0.12546364  0.59804355  0.01700319     0.01100
C1438       C  0.11161428  0.58655773  0.04774986     0.03900
C1439       C  0.11296173  0.56754296  0.06381867    -0.12100
C1440       C  0.12769900  0.55956460  0.04879741     0.23200
C1441       C  0.14030093  0.56996505  0.01681707    -0.12700
C1442       C  0.13943878  0.58928714  0.00119789     0.04600
C1443       C  0.13139832  0.54150983  0.06804340     0.27100
C1444       C  0.15209930  0.54871176  0.08827917    -0.13400
C1445       C  0.15614552  0.53188186  0.10603018     0.05200
C1446       C  0.13790339  0.50776691  0.10819173    -0.09400
C1447       C  0.11724635  0.50056973  0.08665925     0.06000
C1448       C  0.11467349  0.51734128  0.06559372    -0.13700
Br1449     Br  0.15925292  0.55794389  0.99501824    -0.05800
Br1450     Br  0.09202136  0.59774766  0.06962709    -0.00200
Br1451     Br  0.18762925  0.54283227  0.12500243     0.00300
Br1452     Br  0.08821817  0.50751281  0.03301730    -0.04100
Br1453     Br  0.15742569  0.60345100  0.95782348     0.00400
Br1454     Br  0.09551849  0.55306645  0.10750433    -0.03400
Br1455     Br  0.17473979  0.58206488  0.09264628    -0.04300
Br1456     Br  0.09169981  0.46824253  0.08536538    -0.00300
C1457       C  0.12903592  0.52852990  0.26650397     0.01100
C1458       C  0.13098997  0.54757563  0.24497048     0.03900
C1459       C  0.13108753  0.56732504  0.26138384    -0.12100
C1460       C  0.12987989  0.56868787  0.29939394     0.23200
C1461       C  0.12819182  0.55000335  0.32094257    -0.12700
C1462       C  0.12693374  0.52973279  0.30475101     0.04600
C1463       C  0.12977232  0.58931895  0.31730134     0.27100
C1464       C  0.15089200  0.61099133  0.32172134    -0.13400
C1465       C  0.15118653  0.62925341  0.34291135     0.05200
C1466       C  0.13097396  0.62527299  0.36243559    -0.09400
C1467       C  0.11008205  0.60332600  0.35878929     0.06000
C1468       C  0.10904866  0.58618232  0.33428789    -0.13700
Br1469     Br  0.12837077  0.55263984  0.37329414    -0.05800
Br1470     Br  0.13226939  0.54655006  0.19263996    -0.00200
Br1471     Br  0.17999988  0.65897752  0.34830784     0.00300
Br1472     Br  0.07955624  0.55751687  0.32593481    -0.04100
Br1473     Br  0.12246750  0.50410087  0.33637766     0.00400
Br1474     Br  0.13273378  0.59262422  0.23181258    -0.03400
Br1475     Br  0.17993672  0.61478840  0.30200629    -0.04300
Br1476     Br  0.08407982  0.59497745  0.39131756    -0.00300
O1477       O  0.15617467  0.50058319  0.65883838    -0.85600
O1478       O  0.14328394  0.51156273  0.72246595    -0.82600
C1479       C  0.13043406  0.50820757  0.74962125     0.97900
O1480       O  0.11962485  0.48787887  0.76344293    -0.82700
O1481       O  0.08621489  0.45486792  0.71442390    -0.85300
C1482       C  0.07790028  0.43994619  0.68867397     1.02400
O1483       O  0.09037859  0.43193845  0.67494424    -0.78100
O1484       O  0.12428989  0.46990775  0.63791663    -0.78300
C1485       C  0.13955392  0.49163489  0.63596300     1.02400
O1486       O  0.17986707  0.47986027  0.69779222    -0.85600
O1487       O  0.16618939  0.48992825  0.76199238    -0.82600
C1488       C  0.15750646  0.47168340  0.78183334     0.97900
O1489       O  0.13646945  0.45535392  0.77748181    -0.82700
O1490       O  0.09935075  0.42131856  0.73735130    -0.85300
C1491       C  0.11094904  0.41141175  0.72815919     1.02400
O1492       O  0.12566067  0.42052256  0.70235872    -0.78100
O1493       O  0.15838462  0.45609067  0.65469974    -0.78200
C1494       C  0.17828305  0.46861166  0.66924191     1.02300
Cr1495     Cr  0.15894340  0.49295648  0.71013953     1.93700
Cr1496     Cr  0.11213421  0.45587523  0.74530019     1.93200
Cr1497     Cr  0.12535711  0.44599853  0.67066020     1.39100
O1498       O  0.13227176  0.46527943  0.70851380    -1.23300
O1499       O  0.97899190  0.15852972  0.90020602    -0.85600
O1500       O  0.98262811  0.15911166  0.82579861    -0.82600
C1501       C  0.96399096  0.16017590  0.82215305     0.97900
O1502       O  0.96433190  0.17921350  0.83008529    -0.82700
O1503       O  0.97799389  0.22373979  0.86072312    -0.85300
C1504       C  0.97430774  0.22403379  0.89454916     1.02400
O1505       O  0.98384307  0.21664098  0.91662384    -0.78100
O1506       O  0.99731504  0.18605918  0.94166262    -0.78300
C1507       C  0.98052639  0.16568827  0.93244604     1.02400
O1508       O  0.02861262  0.17919239  0.90658938    -0.85600
O1509       O  0.03208286  0.18854287  0.83300725    -0.82600
C1510       C  0.03089692  0.19811831  0.80385837     0.97900
O1511       O  0.01245231  0.19959172  0.79662503    -0.82700
O1512       O  0.02370833  0.24003320  0.82943933    -0.85300
C1513       C  0.03368998  0.25492240  0.85419742     1.02400
O1514       O  0.03010134  0.24884620  0.88745487    -0.78100
O1515       O  0.04459329  0.21732861  0.91141044    -0.78200
C1516       C  0.04583559  0.19874818  0.91575159     1.02300
Cr1517     Cr  0.00552554  0.17331646  0.86658245     1.93700
Cr1518     Cr  0.99495964  0.20960170  0.83206830     1.93200
Cr1519     Cr  0.01351053  0.21611713  0.91111325     1.39100
O1520       O  0.00476708  0.20011835  0.86999578    -1.23300
O1521       O  0.82554652  0.30729008  0.50008717    -0.85600
O1522       O  0.81991112  0.30662240  0.57557237    -0.82600
C1523       C  0.82164532  0.28839238  0.57977335     0.97900
O1524       O  0.84091055  0.28945330  0.57266305    -0.82700
O1525       O  0.88483102  0.30280173  0.54578846    -0.85300
C1526       C  0.89164168  0.30523018  0.51302073     1.02400
O1527       O  0.89056685  0.32042113  0.49314555    -0.78100
O1528       O  0.85663202  0.32860115  0.96480395    -0.78300
C1529       C  0.83573337  0.31123766  0.96964594     1.02400
O1530       O  0.84240194  0.35607665  0.50036824    -0.85600
O1531       O  0.84789550  0.35587893  0.57503832    -0.82600
C1532       C  0.85612198  0.35389238  0.60502418     0.97900
O1533       O  0.86030455  0.33678183  0.61109727    -0.82700
O1534       O  0.90296015  0.34647702  0.58382109    -0.85300
C1535       C  0.91789258  0.36290691  0.56454083     1.02400
O1536       O  0.91303434  0.36508460  0.53180540    -0.78100
O1537       O  0.88036508  0.37563209  0.00264551    -0.78200
C1538       C  0.86123049  0.37518789  0.99599234     1.02300
Cr1539     Cr  0.83644198  0.33147772  0.53784460     1.93700
Cr1540     Cr  0.87135166  0.31977917  0.57533948     1.93200
Cr1541     Cr  0.88359295  0.34644079  0.00106565     1.39100
O1542       O  0.86432217  0.33259211  0.53805318    -1.23300
O1543       O  0.84376529  0.48881364  0.75159751    -0.85600
O1544       O  0.84633634  0.49374722  0.82655976    -0.82600
C1545       C  0.85170592  0.50304360  0.85772959     0.97900
O1546       O  0.85715105  0.52472891  0.86233840    -0.82700
O1547       O  0.90087383  0.55347393  0.83466633    -0.85300
C1548       C  0.91682093  0.55766649  0.81207634     1.02400
O1549       O  0.91253359  0.55460986  0.77833861    -0.78100
O1550       O  0.88198143  0.50901575  0.75285336    -0.78300
C1551       C  0.86335698  0.49011841  0.74548106     1.02400
O1552       O  0.82473592  0.51957231  0.74867712    -0.85600
O1553       O  0.81880464  0.51653632  0.82310841    -0.82600
C1554       C  0.82151817  0.53688363  0.82827715     0.97900
O1555       O  0.84136133  0.55462837  0.82291627    -0.82700
O1556       O  0.88630120  0.58310362  0.79715300    -0.85300
C1557       C  0.88913096  0.58709314  0.76322048     1.02400
O1558       O  0.88456564  0.57066644  0.74116753    -0.78100
O1559       O  0.85503193  0.52763806  0.71336132    -0.78200
C1560       C  0.83424028  0.52439004  0.71779333     1.02300
Cr1561     Cr  0.83572566  0.50686987  0.78756450     1.93700
Cr1562     Cr  0.87068911  0.55242534  0.82614703     1.93200
Cr1563     Cr  0.88205708  0.53977827  0.74975445     1.39100
O1564       O  0.86324422  0.53334575  0.78792016    -1.23300
O1565       O  0.17261995  0.68537380  0.92090108    -0.85600
O1566       O  0.16830654  0.68665424  0.99629416    -0.82600
C1567       C  0.15852693  0.68537262  0.52646664     0.97900
O1568       O  0.13705018  0.66948506  0.53281740    -0.82700
O1569       O  0.10399996  0.67986720  0.00551240    -0.85300
C1570       C  0.10714653  0.69732120  0.98660601     1.02400
O1571       O  0.11531068  0.70006384  0.95467317    -0.78100
O1572       O  0.15625212  0.70700300  0.92529266    -0.78300
C1573       C  0.17377204  0.70504123  0.91696235     1.02400
O1574       O  0.13987128  0.63733582  0.92284215    -0.85600
O1575       O  0.14666950  0.63806473  0.99848607    -0.82600
C1576       C  0.12698580  0.62023837  0.50302292     0.97900
O1577       O  0.10902737  0.62179481  0.49603744    -0.82700
O1578       O  0.07984439  0.63552116  0.96697965    -0.85300
C1579       C  0.07530176  0.63958790  0.93516832     1.02400
O1580       O  0.09064050  0.65640168  0.91705555    -0.78100
O1581       O  0.13083718  0.65967910  0.88762047    -0.78200
C1582       C  0.13351118  0.64148631  0.89253673     1.02300
Cr1583     Cr  0.15446467  0.66203852  0.95967936     1.93700
Cr1584     Cr  0.10913778  0.65260212  0.49756682     1.93200
Cr1585     Cr  0.12382211  0.67962989  0.92394903     1.39100
O1586       O  0.12864261  0.66483147  0.96048501    -1.23300
O1587       O  0.02368516  0.84833562  0.65628606    -0.85600
O1588       O  0.02274080  0.84198281  0.58242082    -0.82600
C1589       C  0.01976874  0.83205318  0.55196137     0.97900
O1590       O  0.00325055  0.81080692  0.54733502    -0.82700
O1591       O  0.01853244  0.78400771  0.58199689    -0.85300
C1592       C  0.02733554  0.77784704  0.60717433     1.02400
O1593       O  0.02155536  0.77822208  0.63994891    -0.78100
O1594       O  0.03831018  0.82466255  0.66194010    -0.78300
C1595       C  0.04069143  0.84507711  0.66453743     1.02400
O1596       O  0.97306619  0.82044159  0.65646007    -0.85600
O1597       O  0.97299864  0.82091155  0.58172828    -0.82600
C1598       C  0.95572140  0.80067241  0.57564932     0.97900
O1599       O  0.95719494  0.78246005  0.58276126    -0.82700
O1600       O  0.97318506  0.75347053  0.61397686    -0.85300
C1601       C  0.96803732  0.74996313  0.64751131     1.02400
O1602       O  0.97598570  0.76718291  0.66897990    -0.78100
O1603       O  0.99269482  0.81143992  0.69577148    -0.78200
C1604       C  0.97589776  0.81548436  0.68851238     1.02300
Cr1605     Cr  0.99807426  0.83081291  0.61952807     1.93700
Cr1606     Cr  0.98850672  0.78410814  0.58449538     1.93200
Cr1607     Cr  0.00659501  0.79600767  0.66344488     1.39100
O1608       O  0.99781027  0.80349828  0.62240531    -1.23300
O1609       O  0.30800397  0.82072555  0.75000506    -0.85600
O1610       O  0.30688931  0.81456229  0.67658164    -0.82600
C1611       C  0.28884121  0.81589781  0.66823619     0.97900
O1612       O  0.28909465  0.83532989  0.67183841    -0.82700
O1613       O  0.30169609  0.88053608  0.69614548    -0.85300
C1614       C  0.29649478  0.88050405  0.72938955     1.02400
O1615       O  0.30743092  0.87606284  0.75356941    -0.78100
O1616       O  0.32646176  0.85134443  0.78597441    -0.78300
C1617       C  0.31125781  0.82961683  0.78124310     1.02400
O1618       O  0.35843213  0.84505247  0.74893734    -0.85600
O1619       O  0.35629101  0.84525219  0.67465630    -0.82600
C1620       C  0.35232919  0.84957737  0.64291342     0.97900
O1621       O  0.33508739  0.85315798  0.63671486    -0.82700
O1622       O  0.34801249  0.89702124  0.66430522    -0.85300
C1623       C  0.35706025  0.91342326  0.68740383     1.02400
O1624       O  0.35198941  0.90916791  0.72081492    -0.78100
O1625       O  0.37115406  0.88303107  0.74926506    -0.78200
C1626       C  0.37472608  0.86591890  0.75461634     1.02300
Cr1627     Cr  0.33222765  0.83350530  0.71250595     1.93700
Cr1628     Cr  0.31923745  0.86599737  0.67051149     1.93200
Cr1629     Cr  0.33864018  0.87845779  0.74925037     1.39100
O1630       O  0.33009889  0.85959360  0.71064085    -1.23300
O1631       O  0.16266644  0.97114382  0.83607117    -0.85600
O1632       O  0.15693906  0.96951209  0.90947035    -0.82600
C1633       C  0.16041891  0.95255188  0.91683273     0.97900
O1634       O  0.18075708  0.95503608  0.91344108    -0.82700
O1635       O  0.22664582  0.97261043  0.88916598    -0.85300
C1636       C  0.22664375  0.96750553  0.85588707     1.02400
O1637       O  0.22105997  0.97750688  0.83166233    -0.78100
O1638       O  0.19240156  0.99211355  0.79980051    -0.78300
C1639       C  0.17123099  0.97562638  0.80468387     1.02400
O1640       O  0.18194707  0.02100600  0.83691210    -0.85600
O1641       O  0.18359908  0.01974931  0.91106124    -0.82600
C1642       C  0.18768112  0.01588158  0.94298521     0.97900
O1643       O  0.19376519  0.00029234  0.94895239    -0.82700
O1644       O  0.23844418  0.01797652  0.92132030    -0.85300
C1645       C  0.25450518  0.02882042  0.89829285     1.02400
O1646       O  0.25043842  0.02358748  0.86482395    -0.78100
O1647       O  0.22022208  0.03791582  0.83677689    -0.78200
C1648       C  0.20169174  0.03886017  0.83079236     1.02300
Cr1649     Cr  0.17353920  0.99545920  0.87349893     1.93700
Cr1650     Cr  0.20931633  0.98718209  0.91499005     1.93200
Cr1651     Cr  0.21968722  0.00701581  0.83635726     1.39100
O1652       O  0.20112158  0.99656128  0.87497853    -1.23300
O1653       O  0.49906845  0.15538176  0.59832189    -0.85600
O1654       O  0.50990283  0.13799015  0.53931604    -0.82600
C1655       C  0.50884473  0.12729522  0.01056270     0.97900
O1656       O  0.48977121  0.11786608  0.99253858    -0.82700
O1657       O  0.45458544  0.08231515  0.53847390    -0.85300
C1658       C  0.44059406  0.07414185  0.56544591     1.02400
O1659       O  0.43213551  0.08621584  0.57912864    -0.78100
O1660       O  0.47071683  0.12063030  0.61427394    -0.78300
C1661       C  0.49176739  0.13699878  0.61736109     1.02400
O1662       O  0.47817688  0.17582428  0.55276572    -0.85600
O1663       O  0.49181153  0.16088819  0.99211571    -0.82600
C1664       C  0.47404096  0.15483495  0.97200599     0.97900
O1665       O  0.45654690  0.13431366  0.97602056    -0.82700
O1666       O  0.42184027  0.09650703  0.51334827    -0.85300
C1667       C  0.41056488  0.10559561  0.52780121     1.02400
O1668       O  0.41973218  0.12041891  0.55351543    -0.78100
O1669       O  0.45573114  0.15490901  0.59732491    -0.78200
C1670       C  0.46657315  0.17447078  0.58082858     1.02300
Cr1671     Cr  0.49245359  0.15534494  0.54541264     1.93700
Cr1672     Cr  0.45651173  0.10920291  0.00787931     1.93200
Cr1673     Cr  0.44601326  0.12134730  0.58334050     1.39100
O1674       O  0.46487720  0.12869660  0.54547704    -1.23300
O1675       O  0.84387776  0.02679151  0.58318922    -0.85600
O1676       O  0.84201486  0.02797772  0.65821174    -0.82600
C1677       C  0.83338807  0.02626123  0.68937935     0.97900
O1678       O  0.81243612  0.00993511  0.69687175    -0.82700
O1679       O  0.78264341  0.02434390  0.67133041    -0.85300
C1680       C  0.78077628  0.03820504  0.64966546     1.02400
O1681       O  0.78264892  0.03605795  0.61569810    -0.78100
O1682       O  0.82503559  0.04633252  0.58641500    -0.78300
C1683       C  0.84333232  0.04567443  0.57816288     1.02400
O1684       O  0.81252954  0.97762880  0.58650373    -0.85600
O1685       O  0.81913149  0.97821777  0.66065696    -0.82600
C1686       C  0.79911768  0.96118048  0.66797010     0.97900
O1687       O  0.78118413  0.96321582  0.66237256    -0.82700
O1688       O  0.75181160  0.97995409  0.63757391    -0.85300
C1689       C  0.74679219  0.97876178  0.60402566     1.02400
O1690       O  0.76255159  0.98989069  0.58110358    -0.78100
O1691       O  0.80325114  0.99890016  0.55014391    -0.78200
C1692       C  0.80632616  0.98113030  0.55577459     1.02300
Cr1693     Cr  0.82724959  0.00281331  0.62231031     1.93700
Cr1694     Cr  0.78341053  0.99493163  0.66378705     1.93200
Cr1695     Cr  0.79400633  0.01696770  0.58637694     1.39100
O1696       O  0.80116175  0.00495118  0.62424748    -1.23300
O1697       O  0.48869947  0.84883680  0.99315516    -0.85600
O1698       O  0.49470680  0.85371946  0.91931977    -0.82600
C1699       C  0.50405828  0.85917492  0.88843240     0.97900
O1700       O  0.52516044  0.86327642  0.88362574    -0.82700
O1701       O  0.55288844  0.90582299  0.91569783    -0.85300
C1702       C  0.55891078  0.92124666  0.94009654     1.02400
O1703       O  0.55761526  0.91571331  0.97343311    -0.78100
O1704       O  0.51135814  0.88699844  0.49688027    -0.78300
C1705       C  0.49134838  0.86900546  0.50066479     1.02400
O1706       O  0.51650717  0.82600385  0.49344516    -0.85600
O1707       O  0.51509593  0.82401401  0.91899437    -0.82600
C1708       C  0.53504548  0.82589126  0.91387987     0.97900
O1709       O  0.55336932  0.84516254  0.92117663    -0.82700
O1710       O  0.58273132  0.89090168  0.95018743    -0.85300
C1711       C  0.58614514  0.89070215  0.98415085     1.02400
O1712       O  0.56896337  0.88176728  0.00529725    -0.78100
O1713       O  0.52538838  0.85499752  0.53214163    -0.78200
C1714       C  0.52127911  0.83404170  0.52530443     1.02300
Cr1715     Cr  0.50583002  0.84018099  0.95640083     1.93700
Cr1716     Cr  0.55214499  0.87538271  0.92062451     1.93200
Cr1717     Cr  0.54020175  0.88372488  0.49878126     1.39100
O1718       O  0.53292690  0.86677759  0.95849664    -1.23300
O1719       O  0.69141656  0.17851798  0.82716034    -0.85600
O1720       O  0.69048773  0.17297342  0.75326399    -0.82600
C1721       C  0.68757743  0.16363504  0.72233026     0.97900
O1722       O  0.67169101  0.14214971  0.71755528    -0.82700
O1723       O  0.68841329  0.11638168  0.75083624    -0.85300
C1724       C  0.69860450  0.11157290  0.77556479     1.02400
O1725       O  0.69260112  0.11069167  0.80846885    -0.78100
O1726       O  0.70739599  0.15598221  0.83171611    -0.78300
C1727       C  0.70890616  0.17595984  0.83472279     1.02400
O1728       O  0.64114878  0.14896047  0.82788407    -0.85600
O1729       O  0.64059710  0.15034337  0.75310940    -0.82600
C1730       C  0.62389072  0.12988511  0.74639101     0.97900
O1731       O  0.62603838  0.11207048  0.75310809    -0.82700
O1732       O  0.64272901  0.08421438  0.78273852    -0.85300
C1733       C  0.63703388  0.08010490  0.81600924     1.02400
O1734       O  0.64675459  0.09655434  0.83890844    -0.78100
O1735       O  0.66163003  0.14085767  0.86635035    -0.78200
C1736       C  0.64451451  0.14465469  0.85988227     1.02300
Cr1737     Cr  0.66592772  0.16062604  0.79061268     1.93700
Cr1738     Cr  0.65780554  0.11503630  0.75414746     1.93200
Cr1739     Cr  0.67638437  0.12659488  0.83315349     1.39100
O1740       O  0.66671573  0.13386962  0.79261940    -1.23300
O1741       O  0.51203955  0.35845298  0.75509516    -0.85600
O1742       O  0.50824018  0.35479974  0.82879344    -0.82600
C1743       C  0.49880278  0.35129164  0.85952177     0.97900
O1744       O  0.47877345  0.33321714  0.86540058    -0.82700
O1745       O  0.45013606  0.34796697  0.83892245    -0.85300
C1746       C  0.44136191  0.35667333  0.81794165     1.02400
O1747       O  0.44182895  0.35370948  0.78380571    -0.78100
O1748       O  0.48844150  0.37329025  0.75723724    -0.78300
C1749       C  0.50859104  0.37582777  0.75096757     1.02400
O1750       O  0.48564019  0.30823727  0.75005308    -0.85600
O1751       O  0.48858056  0.30456713  0.82490332    -0.82600
C1752       C  0.46878490  0.28681618  0.83193527     0.97900
O1753       O  0.45035021  0.28801395  0.82668409    -0.82700
O1754       O  0.42000924  0.30332488  0.80265841    -0.85300
C1755       C  0.41587550  0.29948293  0.76888589     1.02400
O1756       O  0.43163179  0.31063851  0.74587490    -0.78100
O1757       O  0.47501561  0.32939576  0.71622058    -0.78200
C1758       C  0.48045282  0.31305750  0.71936969     1.02300
Cr1759     Cr  0.49651758  0.33131953  0.78987391     1.93700
Cr1760     Cr  0.45108725  0.31881430  0.83027152     1.93200
Cr1761     Cr  0.46002635  0.34118506  0.75380274     1.39100
O1762       O  0.46894723  0.33032374  0.79125280    -1.23300
O1763       O  0.18113751  0.15396915  0.58883011    -0.85600
O1764       O  0.18880317  0.15915236  0.66317303    -0.82600
C1765       C  0.19748726  0.16901018  0.69318601     0.97900
O1766       O  0.20195748  0.19021119  0.69955357    -0.82700
O1767       O  0.24415509  0.21836038  0.66879689    -0.85300
C1768       C  0.25848470  0.21870511  0.64584045     1.02400
O1769       O  0.25289540  0.21540163  0.61238822    -0.78100
O1770       O  0.21919450  0.17219597  0.58661840    -0.78300
C1771       C  0.19981932  0.15373095  0.58155370     1.02400
O1772       O  0.16441046  0.18646324  0.59251502    -0.85600
O1773       O  0.16264235  0.18289401  0.66699897    -0.82600
C1774       C  0.16537609  0.20319410  0.67191961     0.97900
O1775       O  0.18504223  0.22069306  0.66450093    -0.82700
O1776       O  0.22961488  0.24857654  0.63567067    -0.85300
C1777       C  0.23226812  0.25274721  0.60189727     1.02400
O1778       O  0.22653917  0.23612252  0.57968498    -0.78100
O1779       O  0.19280577  0.19398380  0.55311609    -0.78200
C1780       C  0.17238211  0.19115393  0.56062733     1.02300
Cr1781     Cr  0.17656671  0.17275788  0.62778208     1.93700
Cr1782     Cr  0.21416264  0.21791312  0.66401926     1.93200
Cr1783     Cr  0.22158050  0.20398083  0.58610645     1.39100
O1784       O  0.20459086  0.19860793  0.62592156    -1.23300
O1785       O  0.35854879  0.51296304  0.98734732    -0.85600
O1786       O  0.35747611  0.50460475  0.91338496    -0.82600
C1787       C  0.35469397  0.49319653  0.88424586     0.97900
O1788       O  0.33627212  0.47313555  0.87939520    -0.82700
O1789       O  0.34914410  0.44390104  0.91104866    -0.85300
C1790       C  0.36056238  0.43982067  0.93476896     1.02400
O1791       O  0.35970995  0.44470111  0.96792678    -0.78100
O1792       O  0.37489080  0.49082112  0.49029752    -0.78300
C1793       C  0.37617004  0.51061320  0.49469198     1.02400
O1794       O  0.30908239  0.48508353  0.48917750    -0.85600
O1795       O  0.30829321  0.48566572  0.91382951    -0.82600
C1796       C  0.28976488  0.46615691  0.91052187     0.97900
O1797       O  0.29025692  0.44749258  0.91827849    -0.82700
O1798       O  0.30531983  0.41717334  0.94770206    -0.85300
C1799       C  0.30482294  0.41396656  0.98173165     1.02400
O1800       O  0.31587659  0.43103735  0.00298637    -0.78100
O1801       O  0.32907316  0.47502498  0.52708987    -0.78200
C1802       C  0.31236138  0.47948448  0.52065864     1.02300
Cr1803     Cr  0.33326361  0.49482811  0.95101906     1.93700
Cr1804     Cr  0.32084227  0.44704034  0.91716001     1.93200
Cr1805     Cr  0.34414368  0.46107499  0.49380864     1.39100
O1806       O  0.33267529  0.46723339  0.95410172    -1.23300
O1807       O  0.48989210  0.64089641  0.67274668    -0.85600
O1808       O  0.48691072  0.63932955  0.74691301    -0.82600
C1809       C  0.48921341  0.62141498  0.75227268     0.97900
O1810       O  0.50916615  0.62319064  0.74709392    -0.82700
O1811       O  0.55532594  0.64042236  0.71941105    -0.85300
C1812       C  0.55510965  0.63662182  0.68550334     1.02400
O1813       O  0.54564360  0.64447599  0.66432324    -0.78100
O1814       O  0.51938490  0.66161158  0.63571885    -0.78300
C1815       C  0.49859924  0.64460172  0.64130807     1.02400
O1816       O  0.51166290  0.69117709  0.67460065    -0.85600
O1817       O  0.51538064  0.68966842  0.74868743    -0.82600
C1818       C  0.52275330  0.68685834  0.77889913     0.97900
O1819       O  0.52523078  0.66882806  0.78449327    -0.82700
O1820       O  0.56756768  0.68477657  0.75392198    -0.85300
C1821       C  0.58376202  0.69328602  0.73090282     1.02400
O1822       O  0.57898281  0.68911637  0.69730915    -0.78100
O1823       O  0.54984740  0.70672831  0.67323393    -0.78200
C1824       C  0.53172563  0.70864083  0.66836197     1.02300
Cr1825     Cr  0.50284935  0.66523173  0.71079702     1.93700
Cr1826     Cr  0.53843596  0.65470351  0.74827328     1.93200
Cr1827     Cr  0.54732070  0.67499976  0.67064433     1.39100
O1828       O  0.52973572  0.66499619  0.70993644    -1.23300
O1829       O  0.64104905  0.49070375  0.57603236    -0.85600
O1830       O  0.63970034  0.48772896  0.50134433    -0.82600
C1831       C  0.62168415  0.48968481  0.99589170     0.97900
O1832       O  0.62226146  0.50896576  0.00268883    -0.82700
O1833       O  0.63800410  0.55466005  0.52941268    -0.85300
C1834       C  0.63519326  0.55598099  0.56318831     1.02400
O1835       O  0.64476935  0.54898109  0.58582339    -0.78100
O1836       O  0.66060926  0.52072769  0.61330183    -0.78300
C1837       C  0.64405946  0.49955601  0.60743844     1.02400
O1838       O  0.69108832  0.51315231  0.57408165    -0.85600
O1839       O  0.68919721  0.51723626  0.99952082    -0.82600
C1840       C  0.68526852  0.52321576  0.96882193     0.97900
O1841       O  0.66772471  0.52653593  0.96424578    -0.82700
O1842       O  0.68217385  0.56887148  0.49495296    -0.85300
C1843       C  0.69116400  0.58531074  0.51768782     1.02400
O1844       O  0.68860165  0.58063297  0.55143328    -0.78100
O1845       O  0.70610238  0.55136183  0.57579295    -0.78200
C1846       C  0.70842535  0.53336730  0.57985750     1.02300
Cr1847     Cr  0.66518954  0.50427544  0.53790140     1.93700
Cr1848     Cr  0.65308841  0.53890529  0.00097141     1.93200
Cr1849     Cr  0.67449346  0.54904437  0.57851162     1.39100
O1850       O  0.66417469  0.53097511  0.53924020    -1.23300
O1851       O  0.81291696  0.84177423  0.83939972    -0.85600
O1852       O  0.81522554  0.84511853  0.91398798    -0.82600
C1853       C  0.79513730  0.84285597  0.91940111     0.97900
O1854       O  0.77701336  0.82333249  0.91302890    -0.82700
O1855       O  0.74783742  0.77791541  0.88561442    -0.85300
C1856       C  0.74384340  0.77667377  0.85168312     1.02400
O1857       O  0.76037900  0.78355224  0.82933126    -0.78100
O1858       O  0.80368067  0.81199690  0.80185659    -0.78300
C1859       C  0.80785113  0.83314156  0.80790908     1.02400
O1860       O  0.84114154  0.82001176  0.83974744    -0.85600
O1861       O  0.83629481  0.81575285  0.91366552    -0.82600
C1862       C  0.82658880  0.80892295  0.94406916     0.97900
O1863       O  0.80606929  0.80608801  0.94999537    -0.82700
O1864       O  0.77808509  0.76338841  0.92045581    -0.85300
C1865       C  0.77107789  0.74711246  0.89738174     1.02400
O1866       O  0.77332800  0.75199225  0.86367954    -0.78100
O1867       O  0.81967959  0.78174631  0.83964204    -0.78200
C1868       C  0.83925772  0.80001700  0.83432180     1.02300
Cr1869     Cr  0.82431237  0.82861440  0.87674878     1.93700
Cr1870     Cr  0.77862646  0.79354158  0.91422871     1.93200
Cr1871     Cr  0.79006186  0.78363325  0.83667922     1.39100
O1872       O  0.79729285  0.80167811  0.87581679    -1.23300
C1873       C  0.75899534  0.72231041  0.91172277     0.01100
C1874       C  0.74272525  0.71661657  0.94063731     0.03900
C1875       C  0.73389913  0.69496767  0.95920601    -0.12100
C1876       C  0.74014899  0.67803638  0.94824612     0.23200
C1877       C  0.75522507  0.68293962  0.91807662    -0.12700
C1878       C  0.76461707  0.70497964  0.89982679     0.04600
C1879       C  0.72845421  0.65421599  0.96611666     0.27100
C1880       C  0.73775453  0.64987117  0.99805840    -0.13400
C1881       C  0.72538655  0.62785964  0.51644542     0.05200
C1882       C  0.70350175  0.61000716  0.50282790    -0.09400
C1883       C  0.69362316  0.61516015  0.97194196     0.06000
C1884       C  0.70631181  0.63675081  0.95333239    -0.13700
Br1885     Br  0.76293502  0.65932991  0.90198507    -0.05800
Br1886     Br  0.73070635  0.73760038  0.95345420    -0.00200
Br1887     Br  0.73842942  0.62240584  0.55995558     0.00300
Br1888     Br  0.69314274  0.64273296  0.91022817    -0.04100
Br1889     Br  0.78513577  0.71131187  0.85881174     0.00400
Br1890     Br  0.71305950  0.68829357  0.50019832    -0.03400
Br1891     Br  0.76752033  0.67425698  0.01664431    -0.04300
Br1892     Br  0.66170226  0.59357080  0.95627003    -0.00300
C1893       C  0.71959909  0.76524492  0.83636296     0.01100
C1894       C  0.71297845  0.74645826  0.81132824     0.03900
C1895       C  0.69143184  0.73702691  0.79262017    -0.12100
C1896       C  0.67588727  0.74584526  0.79905985     0.23200
C1897       C  0.68218425  0.76434008  0.82446871    -0.12700
C1898       C  0.70404514  0.77407416  0.84302930     0.04600
C1899       C  0.65206692  0.73359910  0.78172355     0.27100
C1900       C  0.64715898  0.74228487  0.74961265    -0.13400
C1901       C  0.62508557  0.72915162  0.73191063     0.05200
C1902       C  0.60830528  0.70671714  0.74532806    -0.09400
C1903       C  0.61413579  0.69752839  0.77607584     0.06000
C1904       C  0.63522357  0.71136195  0.79513826    -0.13700
Br1905     Br  0.66076056  0.77613493  0.83390067    -0.05800
Br1906     Br  0.73296337  0.73265430  0.80331152    -0.00200
Br1907     Br  0.61785667  0.74210815  0.68993997     0.00300
Br1908     Br  0.64131608  0.69963016  0.83972504    -0.04100
Br1909     Br  0.71304487  0.79990792  0.87658797     0.00400
Br1910     Br  0.68286657  0.71145631  0.75839726    -0.03400
Br1911     Br  0.67090231  0.77196305  0.72976578    -0.04300
Br1912     Br  0.59430323  0.66496368  0.79062752    -0.00300
C1913       C  0.62243371  0.56780913  0.57748885     0.01100
C1914       C  0.63467145  0.58776213  0.60030939     0.03900
C1915       C  0.62264851  0.59805977  0.61727658    -0.12100
C1916       C  0.59840466  0.58892642  0.61098995     0.23200
C1917       C  0.58634197  0.56976857  0.58683559    -0.12700
C1918       C  0.59821464  0.55883140  0.57078800     0.04600
C1919       C  0.58609120  0.60008906  0.62953189     0.27100
C1920       C  0.57506037  0.59149807  0.66330648    -0.13400
C1921       C  0.56560673  0.60366166  0.68278902     0.05200
C1922       C  0.56716780  0.62457055  0.66847456    -0.09400
C1923       C  0.57927408  0.63359229  0.63512228     0.06000
C1924       C  0.58796511  0.62100802  0.61539672    -0.13700
Br1925     Br  0.55377715  0.55899134  0.57528686    -0.05800
Br1926     Br  0.66820137  0.60160575  0.60812214    -0.00200
Br1927     Br  0.55075853  0.59149620  0.72883338     0.00300
Br1928     Br  0.60288499  0.63255371  0.56888116    -0.04100
Br1929     Br  0.58106164  0.53068971  0.54183894     0.00400
Br1930     Br  0.63947642  0.62497704  0.64909034    -0.03400
Br1931     Br  0.57312153  0.56299960  0.68267902    -0.04300
Br1932     Br  0.58606222  0.66433914  0.61701822    -0.00300
C1933       C  0.46855213  0.59895131  0.76594944     0.01100
C1934       C  0.44957422  0.59950702  0.78438243     0.03900
C1935       C  0.43057589  0.57854222  0.79795984    -0.12100
C1936       C  0.43029054  0.55688198  0.79432349     0.23200
C1937       C  0.44839982  0.55584893  0.77526479    -0.12700
C1938       C  0.46714444  0.57660355  0.76037004     0.04600
C1939       C  0.41170831  0.53578413  0.81331394     0.27100
C1940       C  0.41608167  0.53083966  0.84866017    -0.13400
C1941       C  0.39742269  0.51426175  0.86979869     0.05200
C1942       C  0.37397566  0.50383909  0.85701095    -0.09400
C1943       C  0.37002318  0.50637521  0.82000371     0.06000
C1944       C  0.38897122  0.52245950  0.79818480    -0.13700
Br1945     Br  0.44734400  0.52574571  0.76999180    -0.05800
Br1946     Br  0.44867539  0.62847517  0.79289418    -0.00200
Br1947     Br  0.40425834  0.50505287  0.91584757     0.00300
Br1948     Br  0.38381522  0.52754354  0.74827883    -0.04100
Br1949     Br  0.48950382  0.57335142  0.73021536     0.00400
Br1950     Br  0.40474243  0.57931351  0.82264547    -0.03400
Br1951     Br  0.44730832  0.54819373  0.86934600    -0.04300
Br1952     Br  0.33918311  0.48830109  0.79894265    -0.00300
C1953       C  0.48369905  0.62892695  0.61142020     0.01100
C1954       C  0.45982247  0.62324209  0.60917813     0.03900
C1955       C  0.44390603  0.60438325  0.58719067    -0.12100
C1956       C  0.45185787  0.59170386  0.56592718     0.23200
C1957       C  0.47591994  0.59835361  0.56595549    -0.12700
C1958       C  0.49183213  0.61687869  0.58865244     0.04600
C1959       C  0.43448754  0.57045191  0.54553921     0.27100
C1960       C  0.42362126  0.54823260  0.56276701    -0.13400
C1961       C  0.40505317  0.52849449  0.54554610     0.05200
C1962       C  0.39740901  0.53078488  0.51071850    -0.09400
C1963       C  0.40872545  0.55299320  0.49307948     0.06000
C1964       C  0.42737295  0.57270945  0.51037319    -0.13700
Br1965     Br  0.48663116  0.58089407  0.53653156    -0.05800
Br1966     Br  0.44880798  0.64152704  0.63588327    -0.00200
Br1967     Br  0.38843790  0.49897746  0.57150044     0.00300
Br1968     Br  0.44289471  0.60306522  0.48650133    -0.04100
Br1969     Br  0.52420316  0.62417037  0.58976616     0.00400
Br1970     Br  0.41077037  0.59472852  0.58806794    -0.03400
Br1971     Br  0.43358191  0.54521258  0.61084576    -0.04300
Br1972     Br  0.39842850  0.55686928  0.94530687    -0.00300
C1973       C  0.29275953  0.38993895  0.99833049     0.01100
C1974       C  0.26884919  0.37346558  0.99144149     0.03900
C1975       C  0.25772779  0.35149742  0.50983064    -0.12100
C1976       C  0.27031599  0.34612190  0.53583164     0.23200
C1977       C  0.29402224  0.36264000  0.54310155    -0.12700
C1978       C  0.30530754  0.38408993  0.52395532     0.04600
C1979       C  0.25977777  0.32221928  0.55282788     0.27100
C1980       C  0.24708177  0.31721081  0.58555480    -0.13400
C1981       C  0.23864883  0.29496137  0.60262250     0.05200
C1982       C  0.24273499  0.27736728  0.58678149    -0.09400
C1983       C  0.25656453  0.28316567  0.55464132     0.06000
C1984       C  0.26458480  0.30520223  0.53764705    -0.13700
Br1985     Br  0.31121366  0.35553831  0.57913199    -0.05800
Br1986     Br  0.25096869  0.38109352  0.95780792    -0.00200
Br1987     Br  0.22180368  0.28927301  0.64769549     0.00300
Br1988     Br  0.28308725  0.31267334  0.99361552    -0.04100
Br1989     Br  0.33870212  0.40476784  0.53178111     0.00400
Br1990     Br  0.22534768  0.32860156  0.49961718    -0.03400
Br1991     Br  0.24162468  0.34120137  0.60703264    -0.04300
Br1992     Br  0.26673686  0.26213118  0.53451094    -0.00300
C1993       C  0.51156288  0.36921192  0.88780809     0.01100
C1994       C  0.51416183  0.39200813  0.88364927     0.03900
C1995       C  0.52993166  0.41077346  0.90580054    -0.12100
C1996       C  0.54375269  0.40709316  0.93153082     0.23200
C1997       C  0.54072905  0.38422631  0.93655528    -0.12700
C1998       C  0.52457461  0.36525750  0.91474729     0.04600
C1999       C  0.56360791  0.42793164  0.94919439     0.27100
C2000       C  0.58537162  0.43981926  0.93106645    -0.13400
C2001       C  0.60372092  0.46087911  0.94540887     0.05200
C2002       C  0.60092582  0.46959791  0.97901324    -0.09400
C2003       C  0.57930214  0.45744977  0.99764801     0.06000
C2004       C  0.56051241  0.43681261  0.98240680    -0.13700
Br2005     Br  0.56007651  0.37947720  0.97140595    -0.05800
Br2006     Br  0.49763989  0.39824824  0.84555935    -0.00200
Br2007     Br  0.63245080  0.47825798  0.91802844     0.00300
Br2008     Br  0.53064287  0.42037230  0.00698997    -0.04100
Br2009     Br  0.52204256  0.33450362  0.91902147     0.00400
Br2010     Br  0.53397362  0.44208065  0.89917303    -0.03400
Br2011     Br  0.59020865  0.42694964  0.88673226    -0.04300
Br2012     Br  0.57592863  0.46826641  0.54498268    -0.00300
C2013       C  0.62788028  0.48434794  0.63693513     0.01100
C2014       C  0.62169222  0.46016801  0.63879705     0.03900
C2015       C  0.60248520  0.44415686  0.66013879    -0.12100
C2016       C  0.58981555  0.45221033  0.68118368     0.23200
C2017       C  0.59740467  0.47660534  0.68243256    -0.12700
C2018       C  0.61611401  0.49260817  0.66009784     0.04600
C2019       C  0.56837755  0.43489280  0.70154431     0.27100
C2020       C  0.54576377  0.42580300  0.68587403    -0.13400
C2021       C  0.52567762  0.40809173  0.70384946     0.05200
C2022       C  0.52824924  0.39837978  0.73669136    -0.09400
C2023       C  0.55077059  0.40835594  0.75310893     0.06000
C2024       C  0.57063229  0.42673094  0.73587964    -0.13700
Br2025     Br  0.58178937  0.48784367  0.71477313    -0.05800
Br2026     Br  0.64014965  0.44893957  0.61326647    -0.00200
Br2027     Br  0.49489053  0.39643586  0.68237295     0.00300
Br2028     Br  0.60119043  0.44032626  0.75876063    -0.04100
Br2029     Br  0.62432872  0.52542924  0.66040728     0.00400
Br2030     Br  0.59307774  0.41092466  0.66004475    -0.03400
Br2031     Br  0.54257865  0.43660139  0.63857682    -0.04300
Br2032     Br  0.55460399  0.39707741  0.79956270    -0.00300
C2033       C  0.28237739  0.22419552  0.65999041     0.01100
C2034       C  0.28484497  0.21915614  0.69695154     0.03900
C2035       C  0.30720070  0.22870973  0.71324617    -0.12100
C2036       C  0.32744628  0.24404298  0.69374237     0.23200
C2037       C  0.32559279  0.24755860  0.65643299    -0.12700
C2038       C  0.30323161  0.23719185  0.63928758     0.04600
C2039       C  0.35014808  0.25780194  0.71370288     0.27100
C2040       C  0.35399623  0.27770163  0.73440708    -0.13400
C2041       C  0.37485490  0.29032600  0.75476954     0.05200
C2042       C  0.39203543  0.28314464  0.75471080    -0.09400
C2043       C  0.38800586  0.26296329  0.73454944     0.06000
C2044       C  0.36709037  0.25029635  0.71416106    -0.13700
Br2045     Br  0.35381428  0.26763815  0.62943967    -0.05800
Br2046     Br  0.25815718  0.19969125  0.72733163    -0.00200
Br2047     Br  0.38063312  0.31851388  0.78072084     0.00300
Br2048     Br  0.36163882  0.22282538  0.68648016    -0.04100
Br2049     Br  0.30189863  0.24193002  0.58793580     0.00400
Br2050     Br  0.31031595  0.22177684  0.76338609    -0.03400
Br2051     Br  0.33082503  0.28803882  0.73407905    -0.04300
Br2052     Br  0.41124610  0.25273253  0.73484550    -0.00300
C2053       C  0.42998802  0.36955983  0.83527890     0.01100
C2054       C  0.41822459  0.36139297  0.86917509     0.03900
C2055       C  0.40977001  0.37451165  0.88832298    -0.12100
C2056       C  0.41122444  0.39501663  0.87305080     0.23200
C2057       C  0.42222534  0.40293158  0.83903822    -0.12700
C2058       C  0.43196181  0.39058566  0.82052837     0.04600
C2059       C  0.39855748  0.40636785  0.89071373     0.27100
C2060       C  0.37422067  0.39674667  0.88454486    -0.13400
C2061       C  0.36188522  0.40723777  0.90018399     0.05200
C2062       C  0.37369400  0.42758900  0.92251212    -0.09400
C2063       C  0.39782623  0.43641001  0.93046884     0.06000
C2064       C  0.41026111  0.42600526  0.91423216    -0.13700
Br2065     Br  0.42362569  0.43073225  0.81787200    -0.05800
Br2066     Br  0.41160884  0.33113093  0.88908909    -0.00200
Br2067     Br  0.32829820  0.39272080  0.89190766     0.00300
Br2068     Br  0.44338990  0.43868599  0.92384281    -0.04100
Br2069     Br  0.44865217  0.40319610  0.77577743     0.00400
Br2070     Br  0.39574719  0.36427519  0.93572238    -0.03400
Br2071     Br  0.35771092  0.36892021  0.85441022    -0.04300
Br2072     Br  0.41405728  0.46290136  0.96293225    -0.00300
C2073       C  0.61982422  0.05574142  0.82997027     0.01100
C2074       C  0.61646629  0.03464396  0.81304426     0.03900
C2075       C  0.60502810  0.01283025  0.83197185    -0.12100
C2076       C  0.59684281  0.01180092  0.86774853     0.23200
C2077       C  0.59797692  0.03219028  0.88298540    -0.12700
C2078       C  0.60822145  0.05358648  0.86346840     0.04600
C2079       C  0.58699697  0.98936770  0.88931261     0.27100
C2080       C  0.56241885  0.97500965  0.89407078    -0.13400
C2081       C  0.55331688  0.95368964  0.91386865     0.05200
C2082       C  0.56859148  0.94614311  0.92814792    -0.09400
C2083       C  0.59316969  0.96075400  0.92417042     0.06000
C2084       C  0.60233238  0.98247802  0.90550418    -0.13700
Br2085     Br  0.58615675  0.03104365  0.93137954    -0.05800
Br2086     Br  0.62625002  0.03474611  0.76366856    -0.00200
Br2087     Br  0.51980254  0.93444253  0.92120504     0.00300
Br2088     Br  0.63599170  0.00277319  0.90166751    -0.04100
Br2089     Br  0.60349743  0.07890837  0.88099218     0.00400
Br2090     Br  0.60065819  0.98415981  0.80921388    -0.03400
Br2091     Br  0.54115969  0.98416385  0.87243289    -0.04300
Br2092     Br  0.61433036  0.95035062  0.94228343    -0.00300
C2093       C  0.52151859  0.81818807  0.55411062     0.01100
C2094       C  0.54083338  0.82578495  0.57823830     0.03900
C2095       C  0.54297936  0.80922504  0.60028323    -0.12100
C2096       C  0.52630184  0.78502211  0.59766629     0.23200
C2097       C  0.50645111  0.77752689  0.57506476    -0.12700
C2098       C  0.50375803  0.79410485  0.55406008     0.04600
C2099       C  0.52983255  0.76729303  0.61799967     0.27100
C2100       C  0.54466651  0.75917082  0.60390218    -0.13400
C2101       C  0.54644050  0.74084519  0.62145415     0.05200
C2102       C  0.53325300  0.73050038  0.65322861    -0.09400
C2103       C  0.51935293  0.73960508  0.66823681     0.06000
C2104       C  0.51767075  0.75792237  0.65062697    -0.13700
Br2105     Br  0.48341037  0.74431273  0.57180095    -0.05800
Br2106     Br  0.56542742  0.85833744  0.57984722    -0.00200
Br2107     Br  0.56554614  0.72890542  0.59998686     0.00300
Br2108     Br  0.49822397  0.76993757  0.67055219    -0.04100
Br2109     Br  0.47529985  0.78368432  0.52580357     0.00400
Br2110     Br  0.56920143  0.81936521  0.63338108    -0.03400
Br2111     Br  0.56177970  0.77259337  0.55955749    -0.04300
Br2112     Br  0.50267363  0.72736627  0.71323694    -0.00300
C2113       C  0.53621096  0.80559757  0.89748321     0.01100
C2114       C  0.52486977  0.79633019  0.86394216     0.03900
C2115       C  0.52365487  0.77568272  0.84960132    -0.12100
C2116       C  0.53456624  0.76453679  0.86782101     0.23200
C2117       C  0.54595813  0.77371240  0.90132993    -0.12700
C2118       C  0.54643078  0.79397612  0.91643530     0.04600
C2119       C  0.53478063  0.74394902  0.85020438     0.27100
C2120       C  0.51813648  0.72051379  0.85978931    -0.13400
C2121       C  0.51593459  0.70131131  0.83877820     0.05200
C2122       C  0.52912333  0.70558336  0.80669019    -0.09400
C2123       C  0.54659970  0.72895005  0.79827693     0.06000
C2124       C  0.54978035  0.74794746  0.82041518    -0.13700
Br2125     Br  0.56068257  0.75835575  0.92650517    -0.05800
Br2126     Br  0.51153097  0.81228770  0.83666543    -0.00200
Br2127     Br  0.49411146  0.66936098  0.85294679     0.00300
Br2128     Br  0.57361896  0.77981426  0.80843197    -0.04100
Br2129     Br  0.55963082  0.80486068  0.96408515     0.00400
Br2130     Br  0.50665657  0.76232089  0.80494084    -0.03400
Br2131     Br  0.49688429  0.71489593  0.89956371    -0.04300
Br2132     Br  0.56585275  0.73523193  0.75557833    -0.00300
C2133       C  0.79336635  0.86290957  0.93506985     0.01100
C2134       C  0.78494997  0.86145756  0.97073056     0.03900
C2135       C  0.78672349  0.88174366  0.98768435    -0.12100
C2136       C  0.79561981  0.90317410  0.96832591     0.23200
C2137       C  0.80270833  0.90423628  0.93205355    -0.12700
C2138       C  0.80225286  0.88440705  0.91583547     0.04600
C2139       C  0.79874403  0.92498919  0.48656756     0.27100
C2140       C  0.77962363  0.92903056  0.99088038    -0.13400
C2141       C  0.78230983  0.94879915  0.51086966     0.05200
C2142       C  0.80434707  0.96456364  0.52658969    -0.09400
C2143       C  0.82384211  0.96114840  0.52026267     0.06000
C2144       C  0.82103120  0.94140264  0.50049897    -0.13700
Br2145     Br  0.81352376  0.93315929  0.90493281    -0.05800
Br2146     Br  0.77219089  0.83205100  0.99709589    -0.00200
Br2147     Br  0.75542185  0.95287249  0.01883961     0.00300
Br2148     Br  0.84750830  0.93617499  0.49398199    -0.04100
Br2149     Br  0.81411957  0.88707040  0.86733187     0.00400
Br2150     Br  0.77826081  0.88063220  0.03806493    -0.03400
Br2151     Br  0.74941829  0.90690912  0.97027886    -0.04300
Br2152     Br  0.85442973  0.98320119  0.53997190    -0.00300
C2153       C  0.79729680  0.93962872  0.68484560     0.01100
C2154       C  0.80478648  0.92569278  0.66564085     0.03900
C2155       C  0.80579394  0.90689493  0.68302229    -0.12100
C2156       C  0.79973367  0.90213008  0.71989810     0.23200
C2157       C  0.79179378  0.91571993  0.73898588    -0.12700
C2158       C  0.79037936  0.93428792  0.72142659     0.04600
C2159       C  0.80263315  0.88347171  0.73893555     0.27100
C2160       C  0.78392806  0.85998110  0.74014280    -0.13400
C2161       C  0.78641940  0.84257944  0.75947286     0.05200
C2162       C  0.80741621  0.84875841  0.77875889    -0.09400
C2163       C  0.82663396  0.87203081  0.77558671     0.06000
C2164       C  0.82421104  0.88929962  0.75586469    -0.13700
Br2165     Br  0.78372004  0.90937684  0.78961164    -0.05800
Br2166     Br  0.81362487  0.93220372  0.61536990    -0.00200
Br2167     Br  0.76053384  0.81067569  0.76063256     0.00300
Br2168     Br  0.85010681  0.92132606  0.75323978    -0.04100
Br2169     Br  0.78027695  0.95329068  0.74812626     0.00400
Br2170     Br  0.81600621  0.88788251  0.65664702    -0.03400
Br2171     Br  0.75442557  0.85206907  0.71687521    -0.04300
Br2172     Br  0.85645443  0.88034768  0.79834801    -0.00300
C2173       C  0.71701584  0.10593614  0.76439450     0.01100
C2174       C  0.73687328  0.12294636  0.74515572     0.03900
C2175       C  0.75120640  0.11609593  0.72587915    -0.12100
C2176       C  0.74539189  0.09213260  0.72521975     0.23200
C2177       C  0.72642974  0.07546217  0.74629602    -0.12700
C2178       C  0.71253020  0.08243984  0.76631075     0.04600
C2179       C  0.75884518  0.08389937  0.70264184     0.27100
C2180       C  0.75216461  0.07688472  0.66647751    -0.13400
C2181       C  0.76094615  0.06384821  0.64770446     0.05200
C2182       C  0.77558566  0.05654514  0.66577445    -0.09400
C2183       C  0.78310890  0.06500697  0.70189555     0.06000
C2184       C  0.77552444  0.07937477  0.71928920    -0.13700
Br2185     Br  0.71875215  0.04268749  0.74615818    -0.05800
Br2186     Br  0.74426153  0.15562900  0.74519738    -0.00200
Br2187     Br  0.75067197  0.05462636  0.59854619     0.00300
Br2188     Br  0.78664006  0.09182798  0.76743115    -0.04100
Br2189     Br  0.68649967  0.05945734  0.79458772     0.00400
Br2190     Br  0.77842378  0.13928004  0.69981954    -0.03400
Br2191     Br  0.72951703  0.08386626  0.64382998    -0.04300
Br2192     Br  0.80228000  0.05607445  0.73054998    -0.00300
C2193       C  0.61009765  0.90269055  0.00108646     0.01100
C2194       C  0.62873949  0.89948062  0.98820660     0.03900
C2195       C  0.65078387  0.91056135  0.50617169    -0.12100
C2196       C  0.65408001  0.92406924  0.53786706     0.23200
C2197       C  0.63549557  0.92706449  0.55097335    -0.12700
C2198       C  0.61389938  0.91709880  0.53223916     0.04600
C2199       C  0.67775727  0.93755497  0.55522704     0.27100
C2200       C  0.68462483  0.92784601  0.58388260    -0.13400
C2201       C  0.70668929  0.94145031  0.60128748     0.05200
C2202       C  0.72219925  0.96482473  0.58966226    -0.09400
C2203       C  0.71497622  0.97438160  0.56077244     0.06000
C2204       C  0.69287483  0.96090743  0.54411291    -0.13700
Br2205     Br  0.64004879  0.94557876  0.59439830    -0.05800
Br2206     Br  0.62393590  0.87932224  0.94703021    -0.00200
Br2207     Br  0.71600727  0.92737062  0.63934239     0.00300
Br2208     Br  0.68301887  0.97450388  0.50576192    -0.04100
Br2209     Br  0.59041022  0.92504805  0.54849862     0.00400
Br2210     Br  0.67692391  0.90778847  0.98720153    -0.03400
Br2211     Br  0.66374498  0.89572004  0.59869506    -0.04300
Br2212     Br  0.73494908  0.00610200  0.54289268    -0.00300
C2213       C  0.50853956  0.13390760  0.64096207     0.01100
C2214       C  0.52128589  0.15035435  0.66863726     0.03900
C2215       C  0.53838983  0.14800222  0.68897237    -0.12100
C2216       C  0.54339678  0.12970366  0.68089677     0.23200
C2217       C  0.53036771  0.11299128  0.65393732    -0.12700
C2218       C  0.51333097  0.11527595  0.63362991     0.04600
C2219       C  0.56381769  0.12919318  0.69795353     0.27100
C2220       C  0.58522692  0.13831901  0.67873404    -0.13400
C2221       C  0.60444250  0.13721677  0.69390403     0.05200
C2222       C  0.60256535  0.12748466  0.72868322    -0.09400
C2223       C  0.58100482  0.11766563  0.74747424     0.06000
C2224       C  0.56162979  0.11854626  0.73211358    -0.13700
Br2225     Br  0.53649869  0.08724160  0.64429737    -0.05800
Br2226     Br  0.51592518  0.17652129  0.67803174    -0.00200
Br2227     Br  0.63311977  0.14813823  0.66633712     0.00300
Br2228     Br  0.53215707  0.10541602  0.75782251    -0.04100
Br2229     Br  0.49886624  0.09427855  0.59304392     0.00400
Br2230     Br  0.55508486  0.16980132  0.72788298    -0.03400
Br2231     Br  0.58831960  0.15250036  0.63157938    -0.04300
Br2232     Br  0.57827400  0.10354915  0.79450998    -0.00300
C2233       C  0.53060497  0.12738254  0.99697168     0.01100
C2234       C  0.52903184  0.10860865  0.97522896     0.03900
C2235       C  0.54941371  0.11037803  0.95880755    -0.12100
C2236       C  0.57156381  0.13059521  0.96431466     0.23200
C2237       C  0.57365695  0.14812777  0.98876589    -0.12700
C2238       C  0.55338503  0.14696435  0.00440562     0.04600
C2239       C  0.59159543  0.13554966  0.93963054     0.27100
C2240       C  0.60829353  0.12854511  0.94826771    -0.13400
C2241       C  0.62668831  0.13288203  0.92375020     0.05200
C2242       C  0.62813060  0.14377823  0.88956665    -0.09400
C2243       C  0.61231368  0.15269366  0.88290637     0.06000
C2244       C  0.59415929  0.14828154  0.90761282    -0.13700
Br2245     Br  0.60458060  0.17449647  0.99903564    -0.05800
Br2246     Br  0.49919286  0.08022416  0.96757729    -0.00200
Br2247     Br  0.64939597  0.12349070  0.93854513     0.00300
Br2248     Br  0.57241952  0.15988310  0.89785066    -0.04100
Br2249     Br  0.55767235  0.17397340  0.03262654     0.00400
Br2250     Br  0.54717177  0.08546053  0.92763025    -0.03400
Br2251     Br  0.60564450  0.11290130  0.99392250    -0.04300
Br2252     Br  0.61551675  0.17239373  0.84147930    -0.00300
C2253       C  0.47381295  0.17244672  0.94506998     0.01100
C2254       C  0.45485166  0.16593776  0.91998909     0.03900
C2255       C  0.45343219  0.18331982  0.89855839    -0.12100
C2256       C  0.47020398  0.20740635  0.90242206     0.23200
C2257       C  0.48917325  0.21406386  0.92646148    -0.12700
C2258       C  0.49172359  0.19685008  0.94630116     0.04600
C2259       C  0.46779225  0.22608130  0.88210879     0.27100
C2260       C  0.48019258  0.23540506  0.84946564    -0.13400
C2261       C  0.47988654  0.25472719  0.83243564     0.05200
C2262       C  0.46747414  0.26519479  0.84820246    -0.09400
C2263       C  0.45461408  0.25547684  0.88050644     0.06000
C2264       C  0.45452293  0.23581567  0.89700631    -0.13700
Br2265     Br  0.51097805  0.24740620  0.93386188    -0.05800
Br2266     Br  0.43045905  0.13342118  0.91337973    -0.00200
Br2267     Br  0.49601329  0.26641815  0.78687401     0.00300
Br2268     Br  0.43664699  0.22241611  0.94071794    -0.04100
Br2269     Br  0.52035155  0.20827974  0.97477274     0.00400
Br2270     Br  0.42806016  0.17448398  0.86415736    -0.03400
Br2271     Br  0.49787374  0.22182318  0.82832831    -0.04300
Br2272     Br  0.43862429  0.27014195  0.90415554    -0.00300
C2273       C  0.46714585  0.19631395  0.59606056     0.01100
C2274       C  0.47207424  0.21590141  0.57335358     0.03900
C2275       C  0.47652833  0.23775336  0.58840269    -0.12100
C2276       C  0.47419295  0.23987137  0.62593764     0.23200
C2277       C  0.46712525  0.21995752  0.64829563    -0.12700
C2278       C  0.46424734  0.19853538  0.63391067     0.04600
C2279       C  0.47817469  0.26260014  0.64240065     0.27100
C2280       C  0.49926167  0.27721393  0.66131703    -0.13400
C2281       C  0.50085801  0.29546903  0.68393693     0.05200
C2282       C  0.48146322  0.29942014  0.68751367    -0.09400
C2283       C  0.46182497  0.28712683  0.66430819     0.06000
C2284       C  0.45990419  0.26830042  0.64263875    -0.13700
Br2285     Br  0.46092335  0.22213939  0.69903932    -0.05800
Br2286     Br  0.47053860  0.21270214  0.52131014    -0.00200
Br2287     Br  0.52983150  0.31539085  0.70977871     0.00300
Br2288     Br  0.43150073  0.24905508  0.61530368    -0.04100
Br2289     Br  0.45692337  0.17303972  0.66764793     0.00400
Br2290     Br  0.48580166  0.26495557  0.55763290    -0.03400
Br2291     Br  0.52553606  0.27146011  0.65746079    -0.04300
Br2292     Br  0.43718755  0.29533580  0.66264616    -0.00300
C2293       C  0.27850148  0.04696215  0.91212967     0.01100
C2294       C  0.29967676  0.04953852  0.89720922     0.03900
C2295       C  0.32113602  0.06181128  0.91675368    -0.12100
C2296       C  0.32169610  0.07144235  0.95132205     0.23200
C2297       C  0.30125468  0.07114421  0.96426927    -0.12700
C2298       C  0.28021012  0.06009226  0.94382126     0.04600
C2299       C  0.34345400  0.08088762  0.97441374     0.27100
C2300       C  0.34816900  0.06501132  0.99393610    -0.13400
C2301       C  0.36955778  0.07336737  0.51315708     0.05200
C2302       C  0.38632104  0.09778018  0.51394398    -0.09400
C2303       C  0.38097075  0.11378626  0.99613839     0.06000
C2304       C  0.35983786  0.10535624  0.97592603    -0.13700
Br2305     Br  0.30175920  0.08513163  0.51086646    -0.05800
Br2306     Br  0.29998900  0.03697996  0.84999417    -0.00200
Br2307     Br  0.37599446  0.05093647  0.53777208     0.00300
Br2308     Br  0.35394000  0.12711664  0.94840350    -0.04100
Br2309     Br  0.25473053  0.06561809  0.95680326     0.00400
Br2310     Br  0.34993363  0.06504494  0.89686310    -0.03400
Br2311     Br  0.32541495  0.03163750  0.99353203    -0.04300
Br2312     Br  0.40342190  0.14717762  0.99734624    -0.00300
C2313       C  0.18516269  0.03009363  0.97267154     0.01100
C2314       C  0.16913856  0.03875314  0.96809818     0.03900
C2315       C  0.17140059  0.05777740  0.98922773    -0.12100
C2316       C  0.18947600  0.06817983  0.01523039     0.23200
C2317       C  0.20350121  0.05772009  0.52315987    -0.12700
C2318       C  0.20060843  0.03798502  0.00286655     0.04600
C2319       C  0.19369008  0.09022699  0.53399255     0.27100
C2320       C  0.20802596  0.11233277  0.51751166    -0.13400
C2321       C  0.21021404  0.13314467  0.53314050     0.05200
C2322       C  0.19859162  0.13203708  0.56600390    -0.09400
C2323       C  0.18440983  0.10979145  0.58261487     0.06000
C2324       C  0.18174811  0.08897763  0.56635911    -0.13700
Br2325     Br  0.22751986  0.07136953  0.56009249    -0.05800
Br2326     Br  0.14313678  0.02393431  0.93420148    -0.00200
Br2327     Br  0.22711235  0.16269557  0.50734116     0.00300
Br2328     Br  0.16070630  0.05847227  0.58720352    -0.04100
Br2329     Br  0.21747213  0.02186377  0.01762328     0.00400
Br2330     Br  0.15028361  0.07030764  0.98175380    -0.03400
Br2331     Br  0.22378197  0.11377847  0.97240856    -0.04300
Br2332     Br  0.16852490  0.10744620  0.62779861    -0.00300
C2333       C  0.20246760  0.15509379  0.72019774     0.01100
C2334       C  0.21525330  0.14380460  0.70898719     0.03900
C2335       C  0.21726999  0.12768592  0.73198522    -0.12100
C2336       C  0.20528307  0.12147557  0.76532272     0.23200
C2337       C  0.19370744  0.13366501  0.77760875    -0.12700
C2338       C  0.19327592  0.15127823  0.75572405     0.04600
C2339       C  0.20301479  0.10045326  0.78485152     0.27100
C2340       C  0.18802636  0.07781039  0.77034129    -0.13400
C2341       C  0.18834184  0.05790282  0.78451947     0.05200
C2342       C  0.20255653  0.06022706  0.81493914    -0.09400
C2343       C  0.21667810  0.08276966  0.83064981     0.06000
C2344       C  0.21733345  0.10292577  0.81507877    -0.13700
Br2345     Br  0.17711524  0.12509054  0.82318527    -0.05800
Br2346     Br  0.23105481  0.15103414  0.66260091    -0.00200
Br2347     Br  0.17063482  0.02785481  0.75999431     0.00300
Br2348     Br  0.23825480  0.13396489  0.83442885    -0.04100
Br2349     Br  0.17993242  0.16973164  0.77452505     0.00400
Br2350     Br  0.23569575  0.11318726  0.71729618    -0.03400
Br2351     Br  0.16738841  0.07421975  0.73017354    -0.04300
Br2352     Br  0.23435074  0.08600213  0.87432030    -0.00300
C2353       C  0.47095966  0.87061370  0.51553460     0.01100
C2354       C  0.44873143  0.85804928  0.49833965     0.03900
C2355       C  0.42819831  0.85461553  0.51608403    -0.12100
C2356       C  0.42976856  0.86477374  0.55037489     0.23200
C2357       C  0.45211337  0.87942610  0.56599532    -0.12700
C2358       C  0.47266882  0.88204992  0.54897390     0.04600
C2359       C  0.40789528  0.85920260  0.57064458     0.27100
C2360       C  0.39729102  0.87344669  0.56673095    -0.13400
C2361       C  0.37723988  0.86876196  0.58736049     0.05200
C2362       C  0.36844704  0.85046947  0.61351931    -0.09400
C2363       C  0.37775365  0.83479890  0.61464148     0.06000
C2364       C  0.39741500  0.83922302  0.59334999    -0.13700
Br2365     Br  0.45431815  0.89544762  0.61114359    -0.05800
Br2366     Br  0.44630315  0.84617940  0.94968524    -0.00200
Br2367     Br  0.36234867  0.88774432  0.57948182     0.00300
Br2368     Br  0.41033715  0.81809825  0.59558885    -0.04100
Br2369     Br  0.50275674  0.90002790  0.57286250     0.00400
Br2370     Br  0.39770318  0.83530662  0.49402015    -0.03400
Br2371     Br  0.41086494  0.89985578  0.53376036    -0.04300
Br2372     Br  0.36322605  0.80664901  0.64439597    -0.00300
C2373       C  0.48902805  0.85948457  0.85842651     0.01100
C2374       C  0.46573372  0.84040355  0.85565804     0.03900
C2375       C  0.44854621  0.84304070  0.83642800    -0.12100
C2376       C  0.45476281  0.86428807  0.81798415     0.23200
C2377       C  0.47852310  0.88241430  0.81736526    -0.12700
C2378       C  0.49562786  0.88015090  0.83787502     0.04600
C2379       C  0.43601652  0.86773954  0.80074093     0.27100
C2380       C  0.43167834  0.86412986  0.76320423    -0.13400
C2381       C  0.41286370  0.86583884  0.74754425     0.05200
C2382       C  0.39737045  0.86964183  0.76957502    -0.09400
C2383       C  0.40208402  0.87391422  0.80695019     0.06000
C2384       C  0.42160424  0.87337078  0.82239624    -0.13700
Br2385     Br  0.48723939  0.91086385  0.79004863    -0.05800
Br2386     Br  0.45718609  0.81053707  0.87878754    -0.00200
Br2387     Br  0.40881935  0.86367609  0.69576267     0.00300
Br2388     Br  0.42803848  0.87923585  0.87360473    -0.04100
Br2389     Br  0.52749319  0.90605634  0.83962243     0.00400
Br2390     Br  0.41607788  0.81809015  0.83741360    -0.03400
Br2391     Br  0.45062941  0.85543379  0.73362094    -0.04300
Br2392     Br  0.38108330  0.87930186  0.83725880    -0.00300
C2393       C  0.23317255  0.94959265  0.84385135     0.01100
C2394       C  0.25646694  0.95375366  0.84742089     0.03900
C2395       C  0.26394418  0.94011818  0.82725954    -0.12100
C2396       C  0.24792899  0.92155878  0.80464350     0.23200
C2397       C  0.22405204  0.91581287  0.80420885    -0.12700
C2398       C  0.21676696  0.92988101  0.82349892     0.04600
C2399       C  0.25638388  0.90830823  0.78141714     0.27100
C2400       C  0.26593420  0.91685898  0.74672627    -0.13400
C2401       C  0.27677912  0.90614090  0.72680043     0.05200
C2402       C  0.27844169  0.88696217  0.74188872    -0.09400
C2403       C  0.26544815  0.87630346  0.77373675     0.06000
C2404       C  0.25537403  0.88741280  0.79417056    -0.13700
Br2405     Br  0.20140638  0.88886466  0.77679291    -0.05800
Br2406     Br  0.27819232  0.97815838  0.87955852    -0.00200
Br2407     Br  0.28859169  0.91755610  0.67884812     0.00300
Br2408     Br  0.24120862  0.87463810  0.84055561    -0.04100
Br2409     Br  0.18404913  0.92188235  0.82305653     0.00400
Br2410     Br  0.29635875  0.94722993  0.82961771    -0.03400
Br2411     Br  0.26483289  0.94387803  0.72732165    -0.04300
Br2412     Br  0.25954881  0.84526687  0.78755834    -0.00300
C2413       C  0.43290895  0.05015449  0.58174438     0.01100
C2414       C  0.42026870  0.02920605  0.56102634     0.03900
C2415       C  0.40857540  0.00677895  0.57835508    -0.12100
C2416       C  0.41122532  0.00477577  0.61606670     0.23200
C2417       C  0.42574249  0.02537298  0.63601806    -0.12700
C2418       C  0.43495937  0.04783188  0.61976418     0.04600
C2419       C  0.39791893  0.98149581  0.63557656     0.27100
C2420       C  0.37930492  0.97744873  0.65944219    -0.13400
C2421       C  0.36761776  0.95620940  0.67952107     0.05200
C2422       C  0.37310893  0.93795639  0.67398251    -0.09400
C2423       C  0.39254038  0.94249982  0.65174750     0.06000
C2424       C  0.40496305  0.96417142  0.63287561    -0.13700
Br2425     Br  0.43270582  0.02269638  0.68627740    -0.05800
Br2426     Br  0.41725567  0.03120229  0.50931857    -0.00200
Br2427     Br  0.34470394  0.95261803  0.71551441     0.00300
Br2428     Br  0.43202308  0.97039248  0.60393914    -0.04100
Br2429     Br  0.44853019  0.07482519  0.65156825     0.00400
Br2430     Br  0.38771824  0.97890482  0.55093141    -0.03400
Br2431     Br  0.36935096  0.00085548  0.66411749    -0.04300
Br2432     Br  0.40353420  0.91983133  0.65000542    -0.00300
C2433       C  0.95933996  0.81460500  0.71727776     0.01100
C2434       C  0.94931496  0.79573155  0.74255245     0.03900
C2435       C  0.93062862  0.79281589  0.76512348    -0.12100
C2436       C  0.92202563  0.80884064  0.76319792     0.23200
C2437       C  0.93316491  0.82872103  0.74038693    -0.12700
C2438       C  0.95167736  0.83159941  0.71747031     0.04600
C2439       C  0.90065535  0.80431829  0.78398911     0.27100
C2440       C  0.87806532  0.78851132  0.77018684    -0.13400
C2441       C  0.85771841  0.78544899  0.78830613     0.05200
C2442       C  0.85991197  0.79886827  0.81974028    -0.09400
C2443       C  0.88260954  0.81378819  0.83446546     0.06000
C2444       C  0.90284391  0.81629826  0.81681181    -0.13700
Br2445     Br  0.92267020  0.85183864  0.74025711    -0.05800
Br2446     Br  0.95987979  0.77288199  0.74591918    -0.00200
Br2447     Br  0.82707492  0.76400623  0.76832120     0.00300
Br2448     Br  0.93374225  0.83672597  0.83691403    -0.04100
Br2449     Br  0.96688461  0.85941726  0.68723697     0.00400
Br2450     Br  0.91612489  0.76643537  0.79826612    -0.03400
Br2451     Br  0.87515040  0.77202852  0.72519956    -0.04300
Br2452     Br  0.88631910  0.83088822  0.87907353    -0.00300
C2453       C  0.93429465  0.79900739  0.55903675     0.01100
C2454       C  0.91241843  0.78718467  0.57706702     0.03900
C2455       C  0.89270289  0.78795892  0.56286498    -0.12100
C2456       C  0.89485662  0.80065059  0.53080008     0.23200
C2457       C  0.91664882  0.81231769  0.51267213    -0.12700
C2458       C  0.93622772  0.81129296  0.52649071     0.04600
C2459       C  0.87398269  0.80052970  0.01439999     0.27100
C2460       C  0.86037531  0.78276771  0.98904954    -0.13400
C2461       C  0.84350958  0.78473446  0.96783917     0.05200
C2462       C  0.83992968  0.80434706  0.97214624    -0.09400
C2463       C  0.85295993  0.82171734  0.99838796     0.06000
C2464       C  0.86978001  0.81957250  0.51980204    -0.13700
Br2465     Br  0.91950067  0.82975980  0.96881691    -0.05800
Br2466     Br  0.90969156  0.77083633  0.62199429    -0.00200
Br2467     Br  0.82695207  0.76158751  0.93044094     0.00300
Br2468     Br  0.88831099  0.84365755  0.55492348    -0.04100
Br2469     Br  0.96540638  0.82584767  0.49963203     0.00400
Br2470     Br  0.86275528  0.77192447  0.58730109    -0.03400
Br2471     Br  0.86633344  0.75674025  0.98132449    -0.04300
Br2472     Br  0.84971748  0.84957387  0.50183439    -0.00300
C2473       C  0.14063019  0.93075080  0.93214946     0.01100
C2474       C  0.13925111  0.92725163  0.96995371     0.03900
C2475       C  0.11828714  0.90954334  0.98577645    -0.12100
C2476       C  0.09850739  0.89523905  0.96388578     0.23200
C2477       C  0.10015676  0.89813175  0.92593681    -0.12700
C2478       C  0.12120883  0.91572578  0.91011929     0.04600
C2479       C  0.07578869  0.87773209  0.48101881     0.27100
C2480       C  0.06995733  0.85385180  0.48453208    -0.13400
C2481       C  0.04953348  0.83782548  0.50364198     0.05200
C2482       C  0.03600540  0.84610144  0.52211909    -0.09400
C2483       C  0.04098264  0.86966247  0.51635674     0.06000
C2484       C  0.06046486  0.88521392  0.49516817    -0.13700
Br2485     Br  0.07314477  0.87868962  0.89588956    -0.05800
Br2486     Br  0.16564052  0.94765711  0.50028544    -0.00200
Br2487     Br  0.04060686  0.80481006  0.50458682     0.00300
Br2488     Br  0.06660919  0.91702570  0.48613869    -0.04100
Br2489     Br  0.12339668  0.91922783  0.85822498     0.00400
Br2490     Br  0.11615541  0.90543168  0.53767544    -0.03400
Br2491     Br  0.09093194  0.84355368  0.96525156    -0.04300
Br2492     Br  0.02099891  0.88072797  0.53732277    -0.00300
C2493       C  0.06276658  0.86504280  0.67937898     0.01100
C2494       C  0.07122853  0.86297509  0.71369324     0.03900
C2495       C  0.09124479  0.88239980  0.72894085    -0.12100
C2496       C  0.10233912  0.90436121  0.71087483     0.23200
C2497       C  0.09405745  0.90648357  0.67657991    -0.12700
C2498       C  0.07467222  0.88678322  0.66053134     0.04600
C2499       C  0.12096647  0.92562898  0.72990033     0.27100
C2500       C  0.11424448  0.93783848  0.75437285    -0.13400
C2501       C  0.13126445  0.95598927  0.77614005     0.05200
C2502       C  0.15522844  0.96170352  0.77440304    -0.09400
C2503       C  0.16227208  0.95119340  0.74710110     0.06000
C2504       C  0.14507652  0.93302079  0.72508902    -0.13700
Br2505     Br  0.10871010  0.93676633  0.65247281    -0.05800
Br2506     Br  0.05415224  0.83432925  0.74161712    -0.00200
Br2507     Br  0.12137416  0.97301696  0.80835192     0.00300
Br2508     Br  0.15423741  0.91738610  0.68941883    -0.04100
Br2509     Br  0.06497958  0.88973077  0.61236077     0.00400
Br2510     Br  0.10304103  0.87929319  0.77543974    -0.03400
Br2511     Br  0.08136518  0.92881625  0.75925782    -0.04300
Br2512     Br  0.19509375  0.96073969  0.74055067    -0.00300
C2513       C  0.10035500  0.71434166  0.00278272     0.01100
C2514       C  0.10699257  0.72263074  0.53880918     0.03900
C2515       C  0.09838315  0.73635823  0.55575663    -0.12100
C2516       C  0.08214427  0.74112654  0.53775310     0.23200
C2517       C  0.07609707  0.73374007  0.00144646    -0.12700
C2518       C  0.08502483  0.72032987  0.98404232     0.04600
C2519       C  0.06932571  0.75114291  0.55857834     0.27100
C2520       C  0.04853966  0.73569638  0.57749772    -0.13400
C2521       C  0.03582891  0.74464427  0.59655514     0.05200
C2522       C  0.04370875  0.76913159  0.59669394    -0.09400
C2523       C  0.06527994  0.78471318  0.57983970     0.06000
C2524       C  0.07794145  0.77577126  0.56053432    -0.13700
Br2525     Br  0.05461847  0.74118564  0.97622542    -0.05800
Br2526     Br  0.12705672  0.71448861  0.56652772    -0.02000
Br2527     Br  0.00707417  0.72321740  0.62124090     0.00300
Br2528     Br  0.10666696  0.79716450  0.53590378    -0.04100
Br2529     Br  0.07377868  0.70778100  0.93614611     0.00400
Br2530     Br  0.10823621  0.74822984  0.60440340    -0.03400
Br2531     Br  0.03702287  0.70204806  0.57605185    -0.04300
Br2532     Br  0.07750109  0.81841390  0.58400515    -0.00300
C2533       C  0.17317747  0.70317423  0.55398533     0.01100
C2534       C  0.17848805  0.69644483  0.58752776     0.03900
C2535       C  0.19586482  0.71373392  0.61036992    -0.12100
C2536       C  0.20818046  0.73763322  0.59938844     0.23200
C2537       C  0.20257123  0.74433185  0.56616603    -0.12700
C2538       C  0.18485959  0.72730757  0.54394075     0.04600
C2539       C  0.22854121  0.75564456  0.62061212     0.27100
C2540       C  0.22525997  0.76895768  0.64785088    -0.13400
C2541       C  0.24492159  0.78817457  0.66435496     0.05200
C2542       C  0.26800149  0.79476954  0.65264068    -0.09400
C2543       C  0.27113910  0.78084014  0.62591360     0.06000
C2544       C  0.25148722  0.76118887  0.61048232    -0.13700
Br2545     Br  0.22057310  0.77667268  0.54965604    -0.05800
Br2546     Br  0.16370286  0.66344073  0.60049995    -0.00200
Br2547     Br  0.24007764  0.80456686  0.70418835     0.00300
Br2548     Br  0.25575551  0.74222205  0.57398558    -0.04100
Br2549     Br  0.17673583  0.73734845  0.49943816     0.00400
Br2550     Br  0.20413626  0.70459804  0.65539513    -0.03400
Br2551     Br  0.19371229  0.76113597  0.66163302    -0.04300
Br2552     Br  0.30209213  0.78924520  0.60790532    -0.00300
C2553       C  0.29670572  0.81373027  0.81134887     0.01100
C2554       C  0.28824964  0.78907148  0.80798003     0.03900
C2555       C  0.26876969  0.77283689  0.82826663    -0.12100
C2556       C  0.25824843  0.78095407  0.85354978     0.23200
C2557       C  0.26847186  0.80540033  0.86054237    -0.12700
C2558       C  0.28812473  0.82182193  0.84017915     0.04600
C2559       C  0.23642244  0.76343072  0.87238164     0.27100
C2560       C  0.21422654  0.75659316  0.85673174    -0.13400
C2561       C  0.19371439  0.73755593  0.87139035     0.05200
C2562       C  0.19527485  0.72537825  0.90204993    -0.09400
C2563       C  0.21751717  0.73246690  0.91796783     0.06000
C2564       C  0.23797085  0.75155777  0.90331941    -0.13700
Br2565     Br  0.25464724  0.81620833  0.89682093    -0.05800
Br2566     Br  0.30398922  0.77714043  0.77694871    -0.00200
Br2567     Br  0.16380018  0.72679801  0.84729594     0.00300
Br2568     Br  0.26835081  0.76119456  0.92493865    -0.04100
Br2569     Br  0.30304462  0.85496833  0.85264879     0.00400
Br2570     Br  0.25562453  0.73925822  0.82011521    -0.03400
Br2571     Br  0.21214917  0.77283566  0.81426474    -0.04300
Br2572     Br  0.22024149  0.71613059  0.95982551    -0.00300
C2573       C  0.89919522  0.61142242  0.74776985     0.01100
C2574       C  0.91898831  0.61987047  0.72449973     0.03900
C2575       C  0.92763136  0.64176951  0.70668777    -0.12100
C2576       C  0.91698272  0.65584992  0.71220958     0.23200
C2577       C  0.89705661  0.64742631  0.73499861    -0.12700
C2578       C  0.88804947  0.62518921  0.75243550     0.04600
C2579       C  0.92836005  0.68027575  0.69644549     0.27100
C2580       C  0.94848744  0.69838849  0.71354062    -0.13400
C2581       C  0.96179916  0.72052536  0.69664039     0.05200
C2582       C  0.95416868  0.72565090  0.66340677    -0.09400
C2583       C  0.93337476  0.70770837  0.64694759     0.06000
C2584       C  0.92094055  0.68493620  0.66291482    -0.13700
Br2585     Br  0.88213215  0.66640474  0.74205059    -0.05800
Br2586     Br  0.93495874  0.60177996  0.71731131    -0.00200
Br2587     Br  0.99176416  0.74277617  0.71819515     0.00300
Br2588     Br  0.89410815  0.65978497  0.63851826    -0.04100
Br2589     Br  0.85960567  0.61290291  0.78070917     0.00400
Br2590     Br  0.95434189  0.65274337  0.67448562    -0.03400
Br2591     Br  0.95819420  0.69245480  0.76013350    -0.04300
Br2592     Br  0.92126082  0.71438435  0.60346007    -0.00300
C2593       C  0.73087587  0.53537185  0.59296354     0.01100
C2594       C  0.74162945  0.52439891  0.57352305     0.03900
C2595       C  0.76151452  0.52409441  0.58775961    -0.12100
C2596       C  0.77014476  0.53375410  0.62221404     0.23200
C2597       C  0.76005098  0.54542550  0.64119914    -0.12700
C2598       C  0.74058689  0.54641840  0.62651129     0.04600
C2599       C  0.78817618  0.52967759  0.64034239     0.27100
C2600       C  0.78103343  0.50828311  0.65891168    -0.13400
C2601       C  0.79677617  0.50600811  0.68240033     0.05200
C2602       C  0.81997507  0.52500077  0.68693600    -0.09400
C2603       C  0.82778605  0.54551807  0.66537798     0.06000
C2604       C  0.81181827  0.54782619  0.64218056    -0.13700
Br2605     Br  0.77235232  0.55909878  0.68824721    -0.05800
Br2606     Br  0.72916779  0.50924745  0.52760558    -0.00200
Br2607     Br  0.78602062  0.47696242  0.70937386     0.00300
Br2608     Br  0.82175914  0.57625250  0.61412353    -0.04100
Br2609     Br  0.72604057  0.56102803  0.65414817     0.00400
Br2610     Br  0.77678413  0.50999511  0.56059903    -0.03400
Br2611     Br  0.74924083  0.48240556  0.65343543    -0.04300
Br2612     Br  0.85951937  0.57144716  0.66952717    -0.00300
C2613       C  0.70119914  0.52541649  0.93838045     0.01100
C2614       C  0.70639876  0.50698338  0.93243022     0.03900
C2615       C  0.72575311  0.51084738  0.91087354    -0.12100
C2616       C  0.73925249  0.53270201  0.89326718     0.23200
C2617       C  0.73245924  0.55014406  0.89560881    -0.12700
C2618       C  0.71377789  0.54675848  0.91863439     0.04600
C2619       C  0.76117981  0.53748643  0.87393947     0.27100
C2620       C  0.78303023  0.54901648  0.89221703    -0.13400
C2621       C  0.80314550  0.54981033  0.87662179     0.05200
C2622       C  0.80156085  0.53942419  0.84232624    -0.09400
C2623       C  0.78005749  0.52955021  0.82296332     0.06000
C2624       C  0.75995445  0.52860567  0.83871663    -0.13700
Br2625     Br  0.74937878  0.57891529  0.86791549    -0.05800
Br2626     Br  0.68661732  0.47611342  0.95319573    -0.00200
Br2627     Br  0.83224162  0.56327418  0.90378336     0.00300
Br2628     Br  0.73046651  0.51462900  0.81256202    -0.04100
Br2629     Br  0.70695810  0.57220408  0.92428228     0.00400
Br2630     Br  0.73452293  0.48655132  0.90679425    -0.03400
Br2631     Br  0.78506847  0.56294626  0.93929211    -0.04300
Br2632     Br  0.77794190  0.51731525  0.77472710    -0.00300
C2633       C  0.94111774  0.56799608  0.82628079     0.01100
C2634       C  0.95054603  0.55341886  0.83639313     0.03900
C2635       C  0.97208067  0.56296767  0.85541284    -0.12100
C2636       C  0.98412726  0.58714123  0.86466337     0.23200
C2637       C  0.97490262  0.60181733  0.85423769    -0.12700
C2638       C  0.95346211  0.59228352  0.83521232     0.04600
C2639       C  0.00732173  0.59785426  0.88320548     0.27100
C2640       C  0.00880677  0.59959899  0.92125282    -0.13400
C2641       C  0.03085867  0.61303339  0.93848248     0.05200
C2642       C  0.05177481  0.62461437  0.91754504    -0.09400
C2643       C  0.04988773  0.62267107  0.87885835     0.06000
C2644       C  0.02782124  0.60901335  0.86219366    -0.13700
Br2645     Br  0.99180127  0.63510064  0.86631777    -0.05800
Br2646     Br  0.93364812  0.52031131  0.82525153    -0.00200
Br2647     Br  0.03141415  0.61754523  0.99035721     0.00300
Br2648     Br  0.02519165  0.60622066  0.80985947    -0.04100
Br2649     Br  0.94084005  0.61260850  0.82228992     0.00400
Br2650     Br  0.98510055  0.54307518  0.86908793    -0.03400
Br2651     Br  0.98022107  0.58432272  0.94945451    -0.04300
Br2652     Br  0.07670381  0.63890260  0.84664767    -0.00300
C2653       C  0.82177098  0.29571754  0.93940912     0.01100
C2654       C  0.80103668  0.29582215  0.92869931     0.03900
C2655       C  0.78389741  0.27708051  0.90788006    -0.12100
C2656       C  0.78775310  0.25851856  0.89679669     0.23200
C2657       C  0.80932376  0.25944646  0.90459640    -0.12700
C2658       C  0.82610443  0.27772986  0.92657415     0.04600
C2659       C  0.76829980  0.23693610  0.88023304     0.27100
C2660       C  0.75349932  0.21771206  0.90257513    -0.13400
C2661       C  0.73492450  0.19713887  0.88721042     0.05200
C2662       C  0.73040855  0.19614547  0.84969972    -0.09400
C2663       C  0.74545058  0.21529123  0.82732369     0.06000
C2664       C  0.76453473  0.23555795  0.84254062    -0.13700
Br2665     Br  0.81509489  0.23479610  0.88667991    -0.05800
Br2666     Br  0.79569155  0.32120007  0.44404237    -0.00200
Br2667     Br  0.71539631  0.17046959  0.91767878     0.00300
Br2668     Br  0.78545098  0.26162588  0.81205556    -0.04100
Br2669     Br  0.85359037  0.27642320  0.94191878     0.00400
Br2670     Br  0.75444509  0.27592173  0.89654086    -0.03400
Br2671     Br  0.75817934  0.22003094  0.95446318    -0.04300
Br2672     Br  0.74045721  0.21371578  0.77577508    -0.00300
C2673       C  0.80136941  0.26638369  0.59415290     0.01100
C2674       C  0.80396739  0.25554719  0.62573195     0.03900
C2675       C  0.78413553  0.23626362  0.64159602    -0.12100
C2676       C  0.76156766  0.22765731  0.62611674     0.23200
C2677       C  0.75912869  0.23761916  0.59356317    -0.12700
C2678       C  0.77889761  0.25694661  0.57770043     0.04600
C2679       C  0.74026081  0.21031627  0.64653666     0.27100
C2680       C  0.73212671  0.18580346  0.64462866    -0.13400
C2681       C  0.71350895  0.16992925  0.66723092     0.05200
C2682       C  0.70300357  0.17861671  0.69211930    -0.09400
C2683       C  0.70970224  0.20295587  0.69100090     0.06000
C2684       C  0.72860895  0.21873356  0.66913848    -0.13700
Br2685     Br  0.72841508  0.22520907  0.57151476    -0.05800
Br2686     Br  0.83426786  0.26834311  0.64932054    -0.00200
Br2687     Br  0.70332458  0.13659483  0.66443639     0.00300
Br2688     Br  0.73951916  0.25229655  0.67152359    -0.04100
Br2689     Br  0.77498674  0.27034810  0.53327440     0.00400
Br2690     Br  0.78755218  0.22230140  0.68578331    -0.03400
Br2691     Br  0.74729780  0.17427053  0.61197237    -0.04300
Br2692     Br  0.69257505  0.21496114  0.71848563    -0.00300
C2693       C  0.86399458  0.46996802  0.72727553     0.01100
C2694       C  0.85190606  0.46106885  0.69405932     0.03900
C2695       C  0.85189978  0.44167020  0.67696108    -0.12100
C2696       C  0.86431477  0.43118930  0.69244327     0.23200
C2697       C  0.87669148  0.44020152  0.72520534    -0.12700
C2698       C  0.87591838  0.45902541  0.74310310     0.04600
C2699       C  0.86446295  0.41091050  0.67373005     0.27100
C2700       C  0.84797743  0.38739356  0.68312194    -0.13400
C2701       C  0.84628080  0.36828946  0.66237174     0.05200
C2702       C  0.86110857  0.37265993  0.63218858    -0.09400
C2703       C  0.87803770  0.39625536  0.62359445     0.06000
C2704       C  0.87982877  0.41522681  0.64442640    -0.13700
Br2705     Br  0.89505755  0.42695843  0.74502933    -0.05800
Br2706     Br  0.83569621  0.47561691  0.67094841    -0.00200
Br2707     Br  0.82214820  0.33641218  0.67300976     0.00300
Br2708     Br  0.90241736  0.44739321  0.63154971    -0.04100
Br2709     Br  0.88909405  0.46803534  0.79089691     0.00400
Br2710     Br  0.83514054  0.42959842  0.63177270    -0.03400
Br2711     Br  0.82672347  0.38163824  0.72298807    -0.04300
Br2712     Br  0.89809068  0.40294669  0.58180951    -0.00300
C2713       C  0.86048351  0.39647149  0.98210225     0.01100
C2714       C  0.87192732  0.40736068  0.94941928     0.03900
C2715       C  0.86997842  0.42650723  0.93505193    -0.12100
C2716       C  0.85629818  0.43485509  0.95280307     0.23200
C2717       C  0.84534881  0.42446108  0.98593451    -0.12700
C2718       C  0.84720380  0.40523269  0.00032228     0.04600
C2719       C  0.85257347  0.45357865  0.93507927     0.27100
C2720       C  0.86994337  0.47764901  0.93739746    -0.13400
C2721       C  0.86948438  0.49443193  0.91337046     0.05200
C2722       C  0.85060294  0.48749805  0.88854831    -0.09400
C2723       C  0.83150267  0.46403671  0.89027515     0.06000
C2724       C  0.83280755  0.44705398  0.91256554    -0.13700
Br2725     Br  0.82798448  0.43682203  0.01166838    -0.05800
Br2726     Br  0.88865251  0.39478496  0.92249281    -0.00200
Br2727     Br  0.89590554  0.52609690  0.91250678     0.00300
Br2728     Br  0.80786750  0.41454305  0.91121156    -0.04100
Br2729     Br  0.83165523  0.39120688  0.54534140     0.00400
Br2730     Br  0.88578652  0.44121500  0.89040858    -0.03400
Br2731     Br  0.89442125  0.48730187  0.97345266    -0.04300
Br2732     Br  0.80322343  0.45505287  0.86226215    -0.00300
C2733       C  0.90148079  0.29054954  0.49632684     0.01100
C2734       C  0.89314511  0.26650557  0.50587214     0.03900
C2735       C  0.90213287  0.25309775  0.98844802    -0.12100
C2736       C  0.91906306  0.26315680  0.96056882     0.23200
C2737       C  0.92679114  0.28664872  0.95015922    -0.12700
C2738       C  0.91860952  0.30039618  0.96815386     0.04600
C2739       C  0.93129567  0.25066247  0.94486926     0.27100
C2740       C  0.95249550  0.25446595  0.96087142    -0.13400
C2741       C  0.96684582  0.24686352  0.94339588     0.05200
C2742       C  0.95962974  0.23397211  0.91020814    -0.09400
C2743       C  0.93836849  0.23031222  0.89396284     0.06000
C2744       C  0.92435465  0.23865724  0.91121616    -0.13700
Br2745     Br  0.94940262  0.30020146  0.91118115    -0.05800
Br2746     Br  0.86852994  0.25117751  0.54146276    -0.00200
Br2747     Br  0.99780936  0.25695786  0.96366712     0.00300
Br2748     Br  0.89585568  0.23430099  0.88842812    -0.04100
Br2749     Br  0.93280504  0.33334325  0.95463250     0.00400
Br2750     Br  0.89169794  0.22088464  0.50272750    -0.03400
Br2751     Br  0.96255998  0.27135770  0.50641916    -0.04300
Br2752     Br  0.92842618  0.21431878  0.84786837    -0.00300
C2753       C  0.14579960  0.20606217  0.68752055     0.01100
C2754       C  0.12956580  0.18906481  0.71221267     0.03900
C2755       C  0.11176569  0.19231520  0.72797695    -0.12100
C2756       C  0.10958968  0.21220075  0.71907107     0.23200
C2757       C  0.12516641  0.22888586  0.69410544    -0.12700
C2758       C  0.14282162  0.22554671  0.67761951     0.04600
C2759       C  0.09084250  0.21514557  0.73693315     0.27100
C2760       C  0.06854902  0.20623589  0.72045761    -0.13400
C2761       C  0.04895390  0.20279721  0.74125172     0.05200
C2762       C  0.05154425  0.20735500  0.77894805    -0.09400
C2763       C  0.07460687  0.21920883  0.79393886     0.06000
C2764       C  0.09413048  0.22307798  0.77297616    -0.13700
Br2765     Br  0.12243446  0.25649639  0.68318063    -0.05800
Br2766     Br  0.13068074  0.16081174  0.72527263    -0.00200
Br2767     Br  0.01884205  0.19107653  0.71790950     0.00300
Br2768     Br  0.12530656  0.23740984  0.79426693    -0.04100
Br2769     Br  0.16089457  0.24639775  0.63871061     0.00400
Br2770     Br  0.09036542  0.16963511  0.76285911    -0.03400
Br2771     Br  0.06472462  0.19710988  0.67005116    -0.04300
Br2772     Br  0.08007389  0.23061846  0.84314544    -0.00300
C2773       C  0.15662815  0.19208427  0.53232065     0.01100
C2774       C  0.16426287  0.21185703  0.50915627     0.03900
C2775       C  0.14781389  0.21425788  0.48712510    -0.12100
C2776       C  0.12377376  0.19696254  0.48814196     0.23200
C2777       C  0.11632492  0.17677991  0.50996964    -0.12700
C2778       C  0.13261706  0.17425798  0.53182278     0.04600
C2779       C  0.10583444  0.19991529  0.96737134     0.27100
C2780       C  0.09441113  0.21109059  0.98391265    -0.13400
C2781       C  0.07479828  0.21065459  0.96702817     0.05200
C2782       C  0.06682008  0.19953694  0.93297858    -0.09400
C2783       C  0.07826111  0.18819205  0.91655166     0.06000
C2784       C  0.09786427  0.18865913  0.93355992    -0.13700
Br2785     Br  0.08339675  0.15289469  0.51078195    -0.05800
Br2786     Br  0.19674341  0.23658546  0.50929587    -0.00200
Br2787     Br  0.05700304  0.22248925  0.99294392     0.00300
Br2788     Br  0.11338191  0.17300436  0.91151179    -0.04100
Br2789     Br  0.12163890  0.14608065  0.56111194     0.00400
Br2790     Br  0.15785862  0.24161640  0.95647366    -0.03400
Br2791     Br  0.10511708  0.22613748  0.53067370    -0.04300
Br2792     Br  0.06686072  0.17115406  0.87143452    -0.00300
C2793       C  0.86379677  0.06640058  0.56148697     0.01100
C2794       C  0.86059495  0.07844421  0.53190606     0.03900
C2795       C  0.88031947  0.09666722  0.51417655    -0.12100
C2796       C  0.90325562  0.10261520  0.52536620     0.23200
C2797       C  0.90650374  0.09142434  0.55571568    -0.12700
C2798       C  0.88689077  0.07351203  0.57390704     0.04600
C2799       C  0.92389339  0.11893779  0.00312401     0.27100
C2800       C  0.93263273  0.10963737  0.47692286    -0.13400
C2801       C  0.95184905  0.12478715  0.95499096     0.05200
C2802       C  0.96242977  0.14974213  0.95904587    -0.09400
C2803       C  0.95395190  0.15895187  0.98654450     0.06000
C2804       C  0.93481571  0.14353093  0.00847667    -0.13700
Br2805     Br  0.93805520  0.10029322  0.57146626    -0.05800
Br2806     Br  0.82945376  0.06891082  0.51331973    -0.00200
Br2807     Br  0.96361047  0.11059799  0.92046753     0.00300
Br2808     Br  0.92312891  0.15594059  0.04578425    -0.04100
Br2809     Br  0.89200779  0.05921909  0.61631682     0.00400
Br2810     Br  0.87609625  0.11288470  0.97335443    -0.03400
Br2811     Br  0.91795467  0.07571843  0.47080082    -0.04300
Br2812     Br  0.96714287  0.19254664  0.99377469    -0.00300
C2813       C  0.84829757  0.04402215  0.71671478     0.01100
C2814       C  0.85603361  0.03743821  0.74811752     0.03900
C2815       C  0.87238327  0.05504669  0.77170843    -0.12100
C2816       C  0.88064704  0.07917605  0.76420423     0.23200
C2817       C  0.87180748  0.08557654  0.73399671    -0.12700
C2818       C  0.85659376  0.06822122  0.70945054     0.04600
C2819       C  0.90196065  0.09801389  0.78259455     0.27100
C2820       C  0.90023315  0.11030111  0.81288205    -0.13400
C2821       C  0.92040671  0.13075134  0.82585011     0.05200
C2822       C  0.94237191  0.13913073  0.80819417    -0.09400
C2823       C  0.94398719  0.12617867  0.77847711     0.06000
C2824       C  0.92398701  0.10559580  0.76619007    -0.13700
Br2825     Br  0.88160626  0.11847789  0.72542656    -0.05800
Br2826     Br  0.84667294  0.00462632  0.75612083    -0.00200
Br2827     Br  0.91795880  0.14649980  0.86870014     0.00300
Br2828     Br  0.92647804  0.08778603  0.72595521    -0.04100
Br2829     Br  0.84791491  0.07797289  0.66510663     0.00400
Br2830     Br  0.88462324  0.04636893  0.81300689    -0.03400
Br2831     Br  0.87018113  0.09890662  0.83637437    -0.04300
Br2832     Br  0.97311910  0.13706726  0.75245212    -0.00300
C2833       C  0.94154082  0.37906925  0.58184899     0.01100
C2834       C  0.96276899  0.38936628  0.56148934     0.03900
C2835       C  0.98494092  0.40086753  0.57927527    -0.12100
C2836       C  0.98634838  0.40234044  0.61742689     0.23200
C2837       C  0.96550506  0.39349489  0.63771701    -0.12700
C2838       C  0.94331907  0.38219553  0.62033570     0.04600
C2839       C  0.00960453  0.41221410  0.63661378     0.27100
C2840       C  0.01891013  0.39727956  0.64502911    -0.13400
C2841       C  0.04019289  0.40603033  0.66461028     0.05200
C2842       C  0.05326430  0.43030317  0.67447471    -0.09400
C2843       C  0.04342000  0.44506093  0.66716126     0.06000
C2844       C  0.02160756  0.43594240  0.64857794    -0.13700
Br2845     Br  0.96759589  0.39646243  0.68998741    -0.05800
Br2846     Br  0.96225445  0.38709963  0.50934748    -0.00200
Br2847     Br  0.05036156  0.38393768  0.67992976     0.00300
Br2848     Br  0.00789704  0.45582310  0.63918823    -0.04100
Br2849     Br  0.91578127  0.37163066  0.65079533     0.00400
Br2850     Br  0.01372136  0.41423056  0.55156069    -0.03400
Br2851     Br  0.00235944  0.36460581  0.62956085    -0.04300
Br2852     Br  0.05979127  0.47788941  0.68142117    -0.00300
C2853       C  0.04858581  0.27981291  0.84188692     0.01100
C2854       C  0.07279385  0.29313507  0.85046827     0.03900
C2855       C  0.08747634  0.31431411  0.83138476    -0.12100
C2856       C  0.07791795  0.32253577  0.80422983     0.23200
C2857       C  0.05357712  0.30971172  0.79686611    -0.12700
C2858       C  0.03901871  0.28867027  0.81565105     0.04600
C2859       C  0.09198470  0.34639474  0.78726560     0.27100
C2860       C  0.09263464  0.36583867  0.80486762    -0.13400
C2861       C  0.09950425  0.38706121  0.78600147     0.05200
C2862       C  0.10646408  0.38947532  0.74877636    -0.09400
C2863       C  0.10803597  0.37052250  0.73233920     0.06000
C2864       C  0.10063034  0.34904779  0.75150557    -0.13700
Br2865     Br  0.04001089  0.32137478  0.76119356    -0.05800
Br2866     Br  0.08579161  0.28247310  0.88821268    -0.00200
Br2867     Br  0.09883037  0.41223128  0.81313017     0.00300
Br2868     Br  0.10134205  0.32269419  0.72864872    -0.04100
Br2869     Br  0.00547027  0.27241756  0.80611367     0.00400
Br2870     Br  0.12065991  0.33213039  0.84223415    -0.03400
Br2871     Br  0.08256162  0.36263785  0.85493989    -0.04300
Br2872     Br  0.11876995  0.37292374  0.68302772    -0.00300
C2873       C  0.17282677  0.46900988  0.80913864     0.01100
C2874       C  0.18567846  0.48702728  0.83480538     0.03900
C2875       C  0.20239866  0.48559917  0.85744825    -0.12100
C2876       C  0.20692281  0.46659346  0.85373830     0.23200
C2877       C  0.19345278  0.44812325  0.82939989    -0.12700
C2878       C  0.17663260  0.44938166  0.80704747     0.04600
C2879       C  0.22815429  0.46767955  0.87056675     0.27100
C2880       C  0.25013397  0.48129351  0.85373332    -0.13400
C2881       C  0.27013732  0.48085747  0.86695214     0.05200
C2882       C  0.26823861  0.46596443  0.89639082    -0.09400
C2883       C  0.24619680  0.45277156  0.91379309     0.06000
C2884       C  0.22628195  0.45381609  0.90105057    -0.13700
Br2885     Br  0.19939870  0.42183204  0.82483843    -0.05800
Br2886     Br  0.18128953  0.51422423  0.83806614    -0.00200
Br2887     Br  0.29996156  0.50099306  0.84385154     0.00300
Br2888     Br  0.19632657  0.43650890  0.92525757    -0.04100
Br2889     Br  0.16164898  0.42564807  0.77019194     0.00400
Br2890     Br  0.21994946  0.51010487  0.89259177    -0.03400
Br2891     Br  0.25270911  0.50026135  0.81168988    -0.04300
Br2892     Br  0.24340888  0.43468942  0.95670166    -0.00300
C2893       C  0.20006520  0.47125831  0.65128877     0.01100
C2894       C  0.21860339  0.47147734  0.67181027     0.03900
C2895       C  0.23911513  0.47422450  0.65441897    -0.12100
C2896       C  0.24172697  0.47760158  0.61663144     0.23200
C2897       C  0.22372917  0.47810270  0.59619905    -0.12700
C2898       C  0.20298945  0.47484690  0.61321939     0.04600
C2899       C  0.26211392  0.47823208  0.59732621     0.27100
C2900       C  0.28206071  0.49992771  0.58798374    -0.13400
C2901       C  0.29919934  0.50026979  0.56421701     0.05200
C2902       C  0.29670169  0.47892356  0.55023529    -0.09400
C2903       C  0.27735282  0.45722694  0.56119984     0.06000
C2904       C  0.26008161  0.45690701  0.58438875    -0.13700
Br2905     Br  0.22754190  0.48276283  0.54429556    -0.05800
Br2906     Br  0.21594875  0.46720043  0.72364483    -0.00200
Br2907     Br  0.32558545  0.53002791  0.04913528     0.00300
Br2908     Br  0.23248300  0.42725316  0.59634573    -0.04100
Br2909     Br  0.17936509  0.47656190  0.58366471     0.00400
Br2910     Br  0.26342283  0.47249993  0.68198368    -0.03400
Br2911     Br  0.28518799  0.52915585  0.60622413    -0.04300
Br2912     Br  0.27322718  0.42777589  0.54270260    -0.00300
C2913       C  0.12548519  0.59809518  0.51702606     0.01100
C2914       C  0.11161055  0.58659583  0.54774531     0.03900
C2915       C  0.11295262  0.56758065  0.56382501    -0.12100
C2916       C  0.12770399  0.55960904  0.54883312     0.23200
C2917       C  0.14033345  0.57002618  0.51687743    -0.12700
C2918       C  0.13948245  0.58935383  0.50125731     0.04600
C2919       C  0.13137690  0.54153324  0.56807240     0.27100
C2920       C  0.15209286  0.54870273  0.58825622    -0.13400
C2921       C  0.15611445  0.53185067  0.60598750     0.05200
C2922       C  0.13784074  0.50775351  0.60819417    -0.09400
C2923       C  0.11717201  0.50058438  0.58670504     0.06000
C2924       C  0.11461406  0.51737301  0.56565823    -0.13700
Br2925     Br  0.15930522  0.55801928  0.49510547    -0.05800
Br2926     Br  0.09198316  0.59776374  0.56956670    -0.00200
Br2927     Br  0.18761024  0.54273435  0.62485282     0.00300
Br2928     Br  0.08812591  0.50757861  0.53315924    -0.04100
Br2929     Br  0.15751284  0.60354497  0.45792656     0.00400
Br2930     Br  0.09547880  0.55309473  0.60748483    -0.03400
Br2931     Br  0.17479121  0.58204141  0.59258505    -0.04300
Br2932     Br  0.09159906  0.46827070  0.58543288    -0.00300
C2933       C  0.12895264  0.52851780  0.76648338     0.01100
C2934       C  0.13100186  0.54760048  0.74494004     0.03900
C2935       C  0.13110407  0.56735785  0.76132939    -0.12100
C2936       C  0.12977789  0.56868064  0.79932538     0.23200
C2937       C  0.12795933  0.54994436  0.82088427    -0.12700
C2938       C  0.12673909  0.52968489  0.80471254     0.04600
C2939       C  0.12971250  0.58934002  0.81720599     0.27100
C2940       C  0.15087173  0.61095920  0.82175306    -0.13400
C2941       C  0.15119979  0.62922240  0.84298239     0.05200
C2942       C  0.13096752  0.62529313  0.86240201    -0.09400
C2943       C  0.11002792  0.60340521  0.85859804     0.06000
C2944       C  0.10897677  0.58627324  0.83405584    -0.13700
Br2945     Br  0.12790071  0.55248769  0.87323312    -0.05800
Br2946     Br  0.13242200  0.54663149  0.69261792    -0.00200
Br2947     Br  0.18007248  0.65886991  0.84856665     0.00300
Br2948     Br  0.07943190  0.55771615  0.82544678    -0.04100
Br2949     Br  0.12220136  0.50403141  0.83635031     0.00400
Br2950     Br  0.13292409  0.59272766  0.73174135    -0.03400
Br2951     Br  0.17990906  0.61468442  0.80212171    -0.04300
Br2952     Br  0.08397315  0.59509026  0.89099200    -0.00300
loop_ 
_geom_bond_atom_site_label_1 
_geom_bond_atom_site_label_2 
_geom_bond_distance 
_geom_bond_site_symmetry_2 
_ccdc_geom_bond_type 
O1          Cr19   1.986       .  S
O1            C9   1.264       .  A
O2          Cr19   1.981       .  S
O2            C3   1.255       .  A
C3            O4   1.259       .  A
C3         C1457   1.503       .  S
O4          Cr20   2.000       .  S
O5          Cr20   2.010       .  S
O5            C6   1.270       .  A
C6            O7   1.267       .  A
C6         C1366   1.501       .  S
O7          Cr21   2.002       .  S
O8          Cr21   1.995       .  S
O8            C9   1.267       .  A
C9         C1446   1.507       .  S
O10         Cr19   1.983       .  S
O10          C18   1.256       .  A
O11         Cr19   2.001       .  S
O11          C12   1.266       .  A
C12          O13   1.264       .  A
C12        C1397   1.486       .  S
O13         Cr20   1.993       .  S
O14         Cr20   1.993       .  S
O14          C15   1.257       .  A
C15          O16   1.273       .  A
C15        C1386   1.512       .  S
O16         Cr21   2.034       .  S
O17         Cr21   2.007       .  S
O17          C18   1.261       .  A
C18        C1417   1.499       .  S
Cr19         O22   1.783       .  S
Cr20         O22   1.776       .  S
Cr21         O22   1.777       .  S
O23         Cr41   1.956   1_655  S
O23          C31   1.262       .  A
O24         Cr41   1.994   1_655  S
O24          C25   1.257       .  A
C25          O26   1.259       .  A
C25        C1346   1.489       .  S
O26         Cr42   2.001       .  S
O27         Cr42   2.045       .  S
O27          C28   1.273       .  A
C28          O29   1.253       .  A
C28        C1266   1.508       .  S
O29         Cr43   1.961   1_655  S
O30         Cr43   2.043   1_655  S
O30          C31   1.279       .  A
C31        C1326   1.493       .  S
O32         Cr41   2.003       .  S
O32          C40   1.258       .  A
O33         Cr41   1.958       .  S
O33          C34   1.263       .  A
C34          O35   1.280       .  A
C34        C1286   1.492       .  S
O35         Cr42   2.040   1_455  S
O36         Cr42   1.945   1_455  S
O36          C37   1.252       .  A
C37          O38   1.275       .  A
C37        C1377   1.490       .  S
O38         Cr43   2.047       .  S
O39         Cr43   1.988       .  S
O39          C40   1.259       .  A
C40        C1306   1.485       .  S
Cr41         O44   1.769       .  S
Cr42         O44   1.769   1_655  S
Cr43         O44   1.765       .  S
O45         Cr63   1.951       .  S
O45        C1529   1.265   1_554  A
O46         Cr63   2.000       .  S
O46          C47   1.253       .  A
C47          O48   1.252       .  A
C47        C1197   1.488       .  S
O48         Cr64   1.995       .  S
O49         Cr64   2.032       .  S
O49          C50   1.271       .  A
C50          O51   1.258   1_554  A
C50        C1257   1.517   1_554  S
O51       Cr1541   1.972   1_556  S
O52         Cr65   2.050       .  S
O52          C53   1.284       .  A
C53        O1521   1.265       .  A
C53        C1177   1.476       .  S
O54         Cr63   2.001       .  S
O54        C1538   1.253   1_554  A
O55         Cr63   1.943       .  S
O55          C56   1.262       .  A
C56          O57   1.287       .  A
C56        C1226   1.483       .  S
O57         Cr64   2.064       .  S
O58         Cr64   1.957       .  S
O58          C59   1.254       .  A
C59          O60   1.273       .  A
C59        C1357   1.512       .  S
O60       Cr1541   2.035       .  S
O61         Cr65   2.008       .  S
O61          C62   1.257       .  A
C62        O1530   1.253       .  A
C62        C1237   1.497       .  S
Cr63         O66   1.783       .  S
Cr64         O66   1.779       .  S
Cr65       O1527   1.973       .  S
Cr65       O1536   2.035       .  S
Cr65       O1542   1.771       .  S
O66       Cr1541   1.771       .  S
O67         Cr85   2.003       .  S
O67          C75   1.258       .  A
O68         Cr85   1.962       .  S
O68          C69   1.264       .  A
C69          O70   1.283       .  A
C69        C1246   1.499       .  S
O70         Cr86   2.059       .  S
O71         Cr86   1.960       .  S
O71          C72   1.254       .  A
C72          O73   1.268       .  A
C72        C1157   1.478       .  S
O73         Cr87   2.023       .  S
O74         Cr87   1.998       .  S
O74          C75   1.259       .  A
C75        C1217   1.488       .  S
O76         Cr85   1.957       .  S
O76          C84   1.261       .  A
O77         Cr85   2.003       .  S
O77          C78   1.258       .  A
C78          O79   1.255       .  A
C78        C1146   1.484       .  S
O79         Cr86   1.989       .  S
O80         Cr86   2.040       .  S
O80          C81   1.273       .  A
C81          O82   1.254       .  A
C81        C1097   1.495       .  S
O82         Cr87   1.956       .  S
O83         Cr87   2.037       .  S
O83          C84   1.276       .  A
C84        C1126   1.481       .  S
Cr85         O88   1.772       .  S
Cr86         O88   1.778       .  S
Cr87         O88   1.778       .  S
O89        Cr107   1.997       .  S
O89          C97   1.250       .  A
O90        Cr107   1.940       .  S
O90        C1567   1.266       .  A
C91          O92   1.288       .  A
C91        O1566   1.266   1_554  A
C91        C1057   1.478       .  S
O92        Cr108   2.056   1_554  S
O93       Cr1584   1.979       .  S
O93          C94   1.259       .  A
C94          O95   1.269       .  A
C94        C1037   1.501       .  S
O95        Cr109   2.019       .  S
O96        Cr109   1.983       .  S
O96          C97   1.249       .  A
C97        C1086   1.481       .  S
O98        Cr107   1.952       .  S
O98         C106   1.266       .  A
O99        Cr107   1.989       .  S
O99        C1576   1.248       .  A
C100        O101   1.250   1_554  A
C100       O1575   1.248   1_554  A
C100       C1437   1.485       .  S
O101       Cr108   1.998       .  S
O102      Cr1584   2.014       .  S
O102        C103   1.269       .  A
C103        O104   1.252       .  A
C103       C1166   1.499       .  S
O104       Cr109   1.951       .  S
O105       Cr109   2.065       .  S
O105        C106   1.289       .  A
C106       C1466   1.481       .  S
Cr107       O110   1.780       .  S
Cr108      O1569   1.980   1_556  S
Cr108      O1578   2.014       .  S
Cr108      O1586   1.771       .  S
Cr109       O110   1.771       .  S
O110      Cr1584   1.771       .  S
O111       Cr129   2.009   1_455  S
O111        C119   1.263       .  A
O112       Cr129   1.961   1_455  S
O112        C113   1.261       .  A
C113        O114   1.276       .  A
C113       C1006   1.490       .  S
O114       Cr130   2.043   1_455  S
O115       Cr130   1.963   1_455  S
O115        C116   1.255       .  A
C116        O117   1.270       .  A
C116       C1046   1.485       .  S
O117       Cr131   2.036       .  S
O118       Cr131   1.988       .  S
O118        C119   1.260       .  A
C119       C1017   1.487       .  S
O120       Cr129   1.974       .  S
O120        C128   1.262       .  A
O121       Cr129   1.996       .  S
O121        C122   1.260       .  A
C122        O123   1.260       .  A
C122        C977   1.478       .  S
O123       Cr130   1.992       .  S
O124       Cr130   2.047       .  S
O124        C125   1.273       .  A
C125        O126   1.254       .  A
C125       C1106   1.501       .  S
O126       Cr131   1.963   1_655  S
O127       Cr131   2.035   1_655  S
O127        C128   1.273       .  A
C128        C957   1.496       .  S
Cr129       O132   1.768       .  S
Cr130       O132   1.775       .  S
Cr131       O132   1.768   1_455  S
O133       Cr151   1.953       .  S
O133        C141   1.258       .  A
O134       Cr151   1.996       .  S
O134        C135   1.259       .  A
C135        O136   1.261       .  A
C135       C1066   1.490       .  S
O136       Cr152   1.995       .  S
O137       Cr152   2.039       .  S
O137        C138   1.272       .  A
C138        O139   1.260       .  A
C138        C926   1.504       .  S
O139       Cr153   1.969       .  S
O140       Cr153   2.048       .  S
O140        C141   1.275       .  A
C141       C1077   1.496       .  S
O142       Cr151   2.003       .  S
O142        C150   1.261       .  A
O143       Cr151   1.955       .  S
O143        C144   1.260       .  A
C144        O145   1.275       .  A
C144        C886   1.492       .  S
O145       Cr152   2.041       .  S
O146       Cr152   1.978       .  S
O146        C147   1.259       .  A
C147        O148   1.271       .  A
C147        C946   1.496       .  S
O148       Cr153   2.032       .  S
O149       Cr153   1.990       .  S
O149        C150   1.258       .  A
C150        C906   1.479       .  S
Cr151       O154   1.768       .  S
Cr152       O154   1.775       .  S
Cr153       O154   1.778       .  S
O155       Cr173   1.947       .  S
O155        C163   1.257       .  A
O156       Cr173   1.996       .  S
O156        C157   1.258       .  A
C157        O158   1.261       .  A
C157        C997   1.481       .  S
O158       Cr174   2.001       .  S
O159       Cr174   2.033       .  S
O159        C160   1.271       .  A
C160        O161   1.259       .  A
C160        C917   1.489       .  S
O161       Cr175   1.969   1_565  S
O162       Cr175   2.053   1_565  S
O162        C163   1.277       .  A
C163       C1026   1.489       .  S
O164       Cr173   1.996   1_545  S
O164        C172   1.259       .  A
O165       Cr173   1.952   1_545  S
O165        C166   1.259       .  A
C166        O167   1.275       .  A
C166        C837   1.492       .  S
O167       Cr174   2.043   1_545  S
O168       Cr174   1.980   1_545  S
O168        C169   1.262       .  A
C169        O170   1.272       .  A
C169        C817   1.509       .  S
O170       Cr175   2.036       .  S
O171       Cr175   1.990       .  S
O171        C172   1.258       .  A
C172        C866   1.482       .  S
Cr173       O176   1.764       .  S
Cr174       O176   1.775       .  S
Cr175       O176   1.776   1_545  S
O177       Cr195   1.997       .  S
O177        C185   1.260       .  A
O178       Cr195   1.969       .  S
O178       C1655   1.252       .  A
C179        O180   1.269       .  A
C179       O1654   1.252       .  A
C179        C757   1.503       .  S
O180       Cr196   2.035       .  S
O181      Cr1672   2.031       .  S
O181        C182   1.277       .  A
C182        O183   1.264       .  A
C182        C937   1.507       .  S
O183       Cr197   2.003       .  S
O184       Cr197   1.991       .  S
O184        C185   1.261       .  A
C185        C737   1.485       .  S
O186       Cr195   1.981       .  S
O186        C194   1.260       .  A
O187      Cr1671   2.004       .  S
O187        C188   1.262       .  A
C188        O189   1.266       .  A
C188        C777   1.521       .  S
O189       Cr196   2.010       .  S
O190      Cr1672   2.001       .  S
O190        C191   1.265       .  A
C191        O192   1.270       .  A
C191        C826   1.491       .  S
O192       Cr197   2.010       .  S
O193       Cr197   2.014       .  S
O193        C194   1.266       .  A
C194        C797   1.508       .  S
Cr195      O1663   2.005   1_554  S
Cr195       O198   1.779       .  S
Cr196      O1657   2.031       .  S
Cr196      O1666   2.001       .  S
Cr196      O1674   1.773       .  S
Cr197       O198   1.766       .  S
O198      Cr1672   1.773       .  S
O199       Cr217   2.007       .  S
O199        C207   1.258       .  A
O200       Cr217   1.947       .  S
O200        C201   1.261       .  A
C201        O202   1.281       .  A
C201       C1337   1.477       .  S
O202       Cr218   2.047   1_545  S
O203       Cr218   1.954   1_545  S
O203        C204   1.254       .  A
C204        O205   1.273       .  A
C204        C706   1.510       .  S
O205       Cr219   2.039       .  S
O206       Cr219   1.983       .  S
O206        C207   1.252       .  A
C207       C1317   1.485       .  S
O208       Cr217   1.946   1_565  S
O208        C216   1.260       .  A
O209       Cr217   2.001   1_565  S
O209        C210   1.257       .  A
C210        O211   1.256       .  A
C210        C677   1.482       .  S
O211       Cr218   1.992       .  S
O212       Cr218   2.035       .  S
O212        C213   1.271       .  A
C213        O214   1.251       .  A
C213        C726   1.496       .  S
O214       Cr219   1.945   1_565  S
O215       Cr219   2.054   1_565  S
O215        C216   1.281       .  A
C216        C666   1.481       .  S
Cr217       O220   1.774       .  S
Cr218       O220   1.776   1_565  S
Cr219       O220   1.770       .  S
O221       Cr239   2.005       .  S
O221       C1705   1.262       .  A
O222       Cr239   1.948       .  S
O222        C223   1.259       .  A
C223        O224   1.279       .  A
C223        C897   1.483       .  S
O224       Cr240   2.050       .  S
O225       Cr240   1.962       .  S
O225        C226   1.256       .  A
C226        O227   1.272       .  A
C226        C606   1.485       .  S
O227      Cr1717   2.040       .  S
O228       Cr241   1.995       .  S
O228        C229   1.260   1_556  A
C229       O1697   1.262   1_554  A
C229        C877   1.489       .  S
O230      Cr1715   1.956       .  S
O230        C238   1.260   1_556  A
O231       Cr239   1.999       .  S
O231        C232   1.260       .  A
C232        O233   1.262       .  A
C232        C637   1.485       .  S
O233       Cr240   2.003       .  S
O234       Cr240   2.047       .  S
O234        C235   1.273       .  A
C235        O236   1.250       .  A
C235        C717   1.494       .  S
O236      Cr1717   1.952       .  S
O237       Cr241   2.040   1_554  S
O237        C238   1.276       .  A
C238        C617   1.485       .  S
Cr239      O1706   1.956       .  S
Cr239       O242   1.762       .  S
Cr240       O242   1.775       .  S
Cr241      O1703   2.040       .  S
Cr241      O1712   1.952   1_556  S
Cr241      O1718   1.767       .  S
O242      Cr1717   1.767       .  S
O243       Cr261   2.004       .  S
O243        C251   1.261       .  A
O244       Cr261   1.962       .  S
O244        C245   1.261       .  A
C245        O246   1.275       .  A
C245       C1206   1.497       .  S
O246       Cr262   2.045       .  S
O247       Cr262   1.958       .  S
O247        C248   1.254       .  A
C248        O249   1.268       .  A
C248        C697   1.476       .  S
O249       Cr263   2.022       .  S
O250       Cr263   1.984       .  S
O250        C251   1.256       .  A
C251       C1186   1.475       .  S
O252       Cr261   1.969       .  S
O252        C260   1.256       .  A
O253       Cr261   1.997       .  S
O253        C254   1.260       .  A
C254        O255   1.256       .  A
C254        C746   1.472       .  S
O255       Cr262   1.983       .  S
O256       Cr262   2.038       .  S
O256        C257   1.272       .  A
C257        O258   1.259       .  A
C257        C597   1.511       .  S
O258       Cr263   1.969       .  S
O259       Cr263   2.039       .  S
O259        C260   1.277       .  A
C260        C766   1.512       .  S
Cr261       O264   1.765       .  S
Cr262       O264   1.772       .  S
Cr263       O264   1.773       .  S
O265       Cr283   2.007       .  S
O265        C273   1.263       .  A
O266       Cr283   1.953       .  S
O266        C267   1.257       .  A
C267        O268   1.274       .  A
C267        C517   1.475       .  S
O268       Cr284   2.034       .  S
O269       Cr284   1.950       .  S
O269        C270   1.250       .  A
C270        O271   1.276       .  A
C270        C577   1.506       .  S
O271       Cr285   2.060       .  S
O272       Cr285   1.998       .  S
O272        C273   1.262       .  A
C273        C546   1.490       .  S
O274       Cr283   1.963       .  S
O274        C282   1.263       .  A
O275       Cr283   2.019       .  S
O275        C276   1.264       .  A
C276        O277   1.256       .  A
C276        C786   1.491       .  S
O277       Cr284   1.981       .  S
O278       Cr284   2.034       .  S
O278        C279   1.272       .  A
C279        O280   1.254       .  A
C279        C566   1.479       .  S
O280       Cr285   1.957       .  S
O281       Cr285   2.050       .  S
O281        C282   1.279       .  A
C282        C806   1.492       .  S
Cr283       O286   1.767       .  S
Cr284       O286   1.771       .  S
Cr285       O286   1.773       .  S
O287       Cr305   1.999       .  S
O287        C295   1.255       .  A
O288       Cr305   1.952       .  S
O288        C289   1.263       .  A
C289        O290   1.280       .  A
C289        C857   1.484       .  S
O290       Cr306   2.045       .  S
O291       Cr306   1.948       .  S
O291        C292   1.254       .  A
C292        O293   1.273       .  A
C292        C557   1.508       .  S
O293       Cr307   2.039       .  S
O294       Cr307   1.992       .  S
O294        C295   1.255       .  A
C295        C846   1.485       .  S
O296       Cr305   1.950       .  S
O296        C304   1.262       .  A
O297       Cr305   1.985       .  S
O297        C298   1.253       .  A
C298        O299   1.256       .  A
C298       C1277   1.493       .  S
O299       Cr306   1.993       .  S
O300       Cr306   2.026       .  S
O300        C301   1.269       .  A
C301        O302   1.255       .  A
C301        C506   1.504       .  S
O302       Cr307   1.963       .  S
O303       Cr307   2.052       .  S
O303        C304   1.282       .  A
C304       C1297   1.485       .  S
Cr305       O308   1.772       .  S
Cr306       O308   1.777       .  S
Cr307       O308   1.769       .  S
O309       Cr327   1.994       .  S
O309       C1793   1.255       .  A
O310       Cr327   1.961       .  S
O310        C311   1.266       .  A
C311        O312   1.276       .  A
C311        C466   1.489       .  S
O312       Cr328   2.037       .  S
O313       Cr328   1.966       .  S
O313        C314   1.257       .  A
C314        O315   1.271       .  A
C314        C586   1.496       .  S
O315      Cr1805   2.033       .  S
O316       Cr329   1.989       .  S
O316        C317   1.257       .  A
C317       O1785   1.255       .  A
C317        C486   1.481   1_556  S
O318      Cr1803   1.970       .  S
O318        C326   1.266   1_556  A
O319       Cr327   1.980       .  S
O319        C320   1.254       .  A
C320        O321   1.261       .  A
C320       C1406   1.490       .  S
O321       Cr328   2.008       .  S
O322       Cr328   2.032       .  S
O322        C323   1.270       .  A
C323        O324   1.254       .  A
C323        C497   1.491       .  S
O324      Cr1805   1.950       .  S
O325       Cr329   2.042   1_554  S
O325        C326   1.279       .  A
C326       C1426   1.483       .  S
Cr327      O1794   1.970       .  S
Cr327       O330   1.777       .  S
Cr328       O330   1.780       .  S
Cr329      O1791   2.033       .  S
Cr329      O1800   1.950   1_556  S
Cr329      O1806   1.771       .  S
O330      Cr1805   1.771       .  S
O331       Cr349   1.964       .  S
O331        C339   1.262       .  A
O332       Cr349   1.993       .  S
O332        C333   1.260       .  A
C333        O334   1.263       .  A
C333        C457   1.505       .  S
O334       Cr350   1.997       .  S
O335       Cr350   2.052       .  S
O335        C336   1.273       .  A
C336        O337   1.249       .  A
C336        C446   1.493       .  S
O337       Cr351   1.944       .  S
O338       Cr351   2.040       .  S
O338        C339   1.275       .  A
C339        C477   1.488       .  S
O340       Cr349   2.001       .  S
O340        C348   1.261       .  A
O341       Cr349   1.963       .  S
O341        C342   1.261       .  A
C342        O343   1.275       .  A
C342        C646   1.483       .  S
O343       Cr350   2.036       .  S
O344       Cr350   1.952       .  S
O344        C345   1.253       .  A
C345        O346   1.273       .  A
C345        C426   1.492       .  S
O346       Cr351   2.048       .  S
O347       Cr351   1.986       .  S
O347        C348   1.260       .  A
C348        C626   1.482       .  S
Cr349       O352   1.760       .  S
Cr350       O352   1.772       .  S
Cr351       O352   1.764       .  S
O353       Cr371   1.969       .  S
O353        C361   1.264       .  A
O354       Cr371   1.991       .  S
O354       C1831   1.258   1_554  A
C355        O356   1.259       .  A
C355       O1830   1.258       .  A
C355        C526   1.476       .  S
O356       Cr372   1.994       .  S
O357      Cr1848   2.026       .  S
O357        C358   1.268       .  A
C358        O359   1.253       .  A
C358        C437   1.480       .  S
O359       Cr373   1.954       .  S
O360       Cr373   2.053       .  S
O360        C361   1.280       .  A
C361        C537   1.501       .  S
O362       Cr371   1.998       .  S
O362        C370   1.259       .  A
O363      Cr1847   1.968       .  S
O363        C364   1.263       .  A
C364        O365   1.274       .  A
C364       C1137   1.489       .  S
O365       Cr372   2.036       .  S
O366      Cr1848   1.949   1_556  S
O366        C367   1.252   1_556  A
C367        O368   1.273       .  A
C367        C406   1.501       .  S
O368       Cr373   2.050       .  S
O369       Cr373   1.993       .  S
O369        C370   1.259       .  A
C370       C1117   1.484       .  S
Cr371      O1839   1.968   1_554  S
Cr371       O374   1.768       .  S
Cr372      O1833   2.026       .  S
Cr372      O1842   1.949       .  S
Cr372      O1850   1.772       .  S
Cr373       O374   1.773       .  S
O374      Cr1848   1.772       .  S
O375       Cr393   1.949       .  S
O375        C383   1.260       .  A
O376       Cr393   2.002       .  S
O376        C377   1.260       .  A
C377        O378   1.258       .  A
C377        C657   1.480       .  S
O378       Cr394   1.989       .  S
O379       Cr394   2.039       .  S
O379        C380   1.272       .  A
C380        O381   1.253       .  A
C380        C417   1.486       .  S
O381       Cr395   1.951       .  S
O382       Cr395   2.056       .  S
O382        C383   1.281       .  A
C383        C686   1.488       .  S
O384       Cr393   1.996       .  S
O384        C392   1.258       .  A
O385       Cr393   1.949       .  S
O385        C386   1.257       .  A
C386        O387   1.277       .  A
C386        C986   1.472       .  S
O387       Cr394   2.039       .  S
O388       Cr394   1.954       .  S
O388        C389   1.254       .  A
C389        O390   1.274       .  A
C389        C397   1.500       .  S
O390       Cr395   2.051       .  S
O391       Cr395   1.997       .  S
O391        C392   1.259       .  A
C392        C966   1.486       .  S
Cr393       O396   1.769       .  S
Cr394       O396   1.772       .  S
Cr395       O396   1.769       .  S
C397        C398   1.420       .  A
C397        C402   1.414       .  A
C398        C399   1.408       .  A
C398       Br410   1.935       .  S
C399        C400   1.406       .  A
C399      Br1890   1.933       .  S
C400        C403   1.500       .  S
C400        C401   1.415       .  A
C401        C402   1.420       .  A
C401       Br409   1.927       .  S
C402       Br413   1.927       .  S
C403        C404   1.414       .  A
C403        C408   1.406       .  A
C404       C1881   1.420       .  A
C404       Br415   1.926       .  S
C405        C406   1.414       .  A
C405       C1880   1.420   1_554  A
C405       Br411   1.927       .  S
C406       C1883   1.422   1_554  A
C407        C408   1.408       .  A
C407       C1882   1.422       .  A
C407       Br416   1.937       .  S
C408       Br412   1.933       .  S
Br414      C1875   1.933       .  S
C417        C418   1.416       .  A
C417        C422   1.411       .  A
C418        C419   1.405       .  A
C418       Br430   1.933       .  S
C419        C420   1.408       .  A
C419       Br434   1.934       .  S
C420        C423   1.494       .  S
C420        C421   1.414       .  A
C421        C422   1.417       .  A
C421       Br429   1.926       .  S
C422       Br433   1.927       .  S
C423        C424   1.414       .  A
C423        C428   1.406       .  A
C424        C425   1.418       .  A
C424       Br435   1.928       .  S
C425        C426   1.414       .  A
C425       Br431   1.927       .  S
C426        C427   1.417       .  A
C427        C428   1.404       .  A
C427       Br436   1.935       .  S
C428       Br432   1.933       .  S
C437        C438   1.415       .  A
C437        C442   1.409       .  A
C438        C439   1.403       .  A
C438       Br450   1.932       .  S
C439        C440   1.407       .  A
C439       Br454   1.934       .  S
C440        C443   1.487       .  S
C440        C441   1.411       .  A
C441        C442   1.412       .  A
C441       Br449   1.926       .  S
C442       Br453   1.926       .  S
C443        C444   1.410       .  A
C443        C448   1.403       .  A
C444        C445   1.414       .  A
C444       Br455   1.929       .  S
C445        C446   1.413       .  A
C445       Br451   1.923       .  S
C446        C447   1.424       .  A
C447        C448   1.405       .  A
C447       Br456   1.939       .  S
C448       Br452   1.934       .  S
C457        C458   1.429       .  A
C457        C462   1.423       .  A
C458        C459   1.408       .  A
C458       Br470   1.936       .  S
C459        C460   1.404       .  A
C459       Br474   1.938       .  S
C460        C463   1.485       .  S
C460        C461   1.404       .  A
C461        C462   1.412       .  A
C461       Br469   1.931       .  S
C462       Br473   1.927       .  S
C463        C464   1.404       .  A
C463        C468   1.411       .  A
C464        C465   1.401       .  A
C464       Br475   1.931       .  S
C465        C466   1.412       .  A
C465       Br471   1.924       .  S
C466        C467   1.413       .  A
C467        C468   1.414       .  A
C467       Br476   1.921       .  S
C468       Br472   1.928       .  S
C477        C478   1.414       .  A
C477        C482   1.416       .  A
C478        C479   1.406       .  A
C478       Br490   1.932       .  S
C479        C480   1.408       .  A
C479       Br494   1.930       .  S
C480        C483   1.486       .  S
C480        C481   1.407       .  A
C481        C482   1.411       .  A
C481       Br489   1.931       .  S
C482       Br493   1.922       .  S
C483        C484   1.409       .  A
C483        C488   1.408       .  A
C484        C485   1.407       .  A
C484       Br495   1.930       .  S
C485        C486   1.411       .  A
C485       Br491   1.930       .  S
C486        C487   1.415   1_554  A
C487        C488   1.410   1_556  A
C487      Br1972   1.930       .  S
C488       Br492   1.931   1_554  S
Br496      C1963   1.930       .  S
C497        C498   1.412       .  A
C497       C1978   1.419       .  A
C498       C1975   1.416       .  A
C498       Br510   1.925       .  S
C499        C500   1.412       .  A
C499       C1974   1.416   1_554  A
C499       Br514   1.927   1_554  S
C500        C503   1.493       .  S
C500        C501   1.406       .  A
C501        C502   1.405       .  A
C501       Br509   1.933       .  S
C502       C1973   1.419   1_554  A
C502       Br513   1.935       .  S
C503        C504   1.409       .  A
C503        C508   1.405       .  A
C504        C505   1.416       .  A
C504       Br515   1.930       .  S
C505        C506   1.420       .  A
C505       Br511   1.927       .  S
C506        C507   1.425       .  A
C507        C508   1.407       .  A
C507       Br516   1.936       .  S
C508      Br1988   1.935   1_554  S
Br512      C1984   1.935       .  S
C517        C518   1.413       .  A
C517        C522   1.408       .  A
C518        C519   1.404       .  A
C518       Br530   1.929       .  S
C519        C520   1.406       .  A
C519       Br534   1.933       .  S
C520        C523   1.484       .  S
C520        C521   1.411       .  A
C521        C522   1.411       .  A
C521       Br529   1.927       .  S
C522       Br533   1.928       .  S
C523        C524   1.408       .  A
C523        C528   1.410       .  A
C524        C525   1.403       .  A
C524       Br535   1.931       .  S
C525        C526   1.411       .  A
C525       Br531   1.931       .  S
C526        C527   1.411       .  A
C527        C528   1.412       .  A
C527      Br2012   1.928       .  S
C528       Br532   1.927       .  S
Br536      C2003   1.928   1_554  S
C537        C538   1.418       .  A
C537        C542   1.418       .  A
C538        C539   1.411       .  A
C538       Br550   1.932       .  S
C539        C540   1.409       .  A
C539       Br554   1.931       .  S
C540        C543   1.497       .  S
C540        C541   1.409       .  A
C541        C542   1.415       .  A
C541       Br549   1.930       .  S
C542       Br553   1.925       .  S
C543        C544   1.412       .  A
C543        C548   1.408       .  A
C544        C545   1.414       .  A
C544       Br555   1.929       .  S
C545        C546   1.413       .  A
C545       Br551   1.930       .  S
C546        C547   1.415       .  A
C547        C548   1.410       .  A
C547       Br556   1.927       .  S
C548       Br552   1.929       .  S
C557        C558   1.429       .  A
C557        C562   1.421       .  A
C558        C559   1.406       .  A
C558       Br570   1.930       .  S
C559        C560   1.401       .  A
C559       Br574   1.937       .  S
C560        C563   1.491       .  S
C560        C561   1.409       .  A
C561        C562   1.417       .  A
C561       Br569   1.930       .  S
C562       Br573   1.927       .  S
C563        C564   1.412       .  A
C563        C568   1.409       .  A
C564        C565   1.408       .  A
C564       Br575   1.931       .  S
C565        C566   1.409       .  A
C565       Br571   1.930       .  S
C566        C567   1.413       .  A
C567        C568   1.411       .  A
C567       Br576   1.930       .  S
C568       Br572   1.929       .  S
C577        C578   1.427       .  A
C577        C582   1.416       .  A
C578        C579   1.411       .  A
C578       Br590   1.938       .  S
C579        C580   1.406       .  A
C579       Br594   1.935       .  S
C580        C583   1.500       .  S
C580        C581   1.412       .  A
C581        C582   1.419       .  A
C581       Br589   1.928       .  S
C582       Br593   1.926       .  S
C583        C584   1.408       .  A
C583        C588   1.414       .  A
C584        C585   1.408       .  A
C584       Br595   1.933       .  S
C585        C586   1.418       .  A
C585       Br591   1.934       .  S
C586        C587   1.414       .  A
C587        C588   1.418       .  A
C587       Br596   1.927       .  S
C588       Br592   1.927       .  S
C597        C598   1.420       .  A
C597        C602   1.420       .  A
C598        C599   1.419       .  A
C598       Br610   1.929       .  S
C599        C600   1.413       .  A
C599       Br614   1.930   1_545  S
C600        C603   1.500   1_545  S
C600        C601   1.406       .  A
C601        C602   1.409       .  A
C601       Br609   1.932       .  S
C602       Br613   1.927       .  S
C603        C604   1.413       .  A
C603        C608   1.412       .  A
C604        C605   1.413       .  A
C604       Br615   1.928       .  S
C605        C606   1.410       .  A
C605       Br611   1.930       .  S
C606        C607   1.412       .  A
C607        C608   1.412       .  A
C607       Br616   1.928       .  S
C608       Br612   1.930   1_565  S
C617        C618   1.416       .  A
C617        C622   1.416       .  A
C618        C619   1.409       .  A
C618       Br630   1.925       .  S
C619        C620   1.407       .  A
C619       Br634   1.931       .  S
C620        C623   1.483       .  S
C620        C621   1.407       .  A
C621        C622   1.406       .  A
C621       Br629   1.932       .  S
C622       Br633   1.934       .  S
C623        C624   1.409       .  A
C623        C628   1.406       .  A
C624        C625   1.409       .  A
C624       Br635   1.931       .  S
C625        C626   1.414       .  A
C625       Br631   1.932       .  S
C626        C627   1.416       .  A
C627        C628   1.406       .  A
C627       Br636   1.930       .  S
C628       Br632   1.931       .  S
C637        C638   1.413       .  A
C637        C642   1.413       .  A
C638        C639   1.406       .  A
C638       Br650   1.930       .  S
C639        C640   1.409       .  A
C639       Br654   1.933       .  S
C640        C643   1.492       .  S
C640        C641   1.412       .  A
C641        C642   1.415       .  A
C641       Br649   1.928       .  S
C642       Br653   1.929       .  S
C643        C644   1.412       .  A
C643        C648   1.409       .  A
C644        C645   1.413       .  A
C644       Br655   1.927       .  S
C645        C646   1.409       .  A
C645       Br651   1.924       .  S
C646        C647   1.413       .  A
C647        C648   1.406       .  A
C647       Br656   1.930       .  S
C648       Br652   1.932       .  S
C657        C658   1.411       .  A
C657        C662   1.412       .  A
C658        C659   1.410       .  A
C658       Br670   1.930       .  S
C659        C660   1.411       .  A
C659       Br674   1.930       .  S
C660       C2139   1.486       .  S
C660        C661   1.406       .  A
C661        C662   1.406       .  A
C661       Br669   1.930       .  S
C662       Br673   1.924       .  S
C663       C2136   1.486       .  S
C663        C668   1.408   1_556  A
C663       C2140   1.409       .  A
C664       C2139   1.409       .  A
C664       C2141   1.411       .  A
C664       Br675   1.930       .  S
C665        C666   1.413       .  A
C665       C2140   1.411   1_554  A
C665      Br2147   1.924       .  S
C666        C667   1.413       .  A
C667        C668   1.405       .  A
C667       Br676   1.933       .  S
C668       Br672   1.931   1_554  S
Br671      C2141   1.924       .  S
C677        C678   1.412       .  A
C677        C682   1.412       .  A
C678        C679   1.409       .  A
C678       Br690   1.927       .  S
C679        C680   1.408       .  A
C679       Br694   1.929       .  S
C680        C683   1.491       .  S
C680        C681   1.411       .  A
C681        C682   1.411       .  A
C681       Br689   1.930       .  S
C682       Br693   1.930       .  S
C683        C684   1.409       .  A
C683        C688   1.408       .  A
C684        C685   1.412       .  A
C684       Br695   1.928       .  S
C685        C686   1.412       .  A
C685       Br691   1.924       .  S
C686        C687   1.416       .  A
C687        C688   1.409       .  A
C687       Br696   1.932       .  S
C688       Br692   1.931       .  S
C697        C698   1.413       .  A
C697        C702   1.407       .  A
C698        C699   1.410       .  A
C698       Br710   1.931       .  S
C699        C700   1.409       .  A
C699       Br714   1.928       .  S
C700        C703   1.487       .  S
C700        C701   1.411       .  A
C701        C702   1.406       .  A
C701       Br709   1.932       .  S
C702       Br713   1.926       .  S
C703        C704   1.406       .  A
C703        C708   1.399       .  A
C704        C705   1.414       .  A
C704       Br715   1.933       .  S
C705        C706   1.422       .  A
C705       Br711   1.921       .  S
C706        C707   1.431       .  A
C707        C708   1.407       .  A
C707       Br716   1.930       .  S
C708       Br712   1.936       .  S
C717        C718   1.413       .  A
C717       C2198   1.422       .  A
C718       C2195   1.416       .  A
C718       Br730   1.926       .  S
C719        C720   1.412       .  A
C719       C2194   1.416   1_554  A
C719      Br2210   1.928   1_554  S
C720        C723   1.491       .  S
C720        C721   1.404       .  A
C721        C722   1.406       .  A
C721       Br729   1.934       .  S
C722       C2193   1.422       .  A
C722       Br733   1.937       .  S
C723        C724   1.411       .  A
C723        C728   1.404       .  A
C724        C725   1.416       .  A
C724       Br735   1.927       .  S
C725        C726   1.415       .  A
C725       Br731   1.928       .  S
C726        C727   1.424       .  A
C727        C728   1.405       .  A
C727       Br736   1.933   1_565  S
C728       Br732   1.936       .  S
Br734      C2195   1.928       .  S
C737        C738   1.412       .  A
C737        C742   1.416       .  A
C738        C739   1.412       .  A
C738       Br750   1.927       .  S
C739        C740   1.410       .  A
C739       Br754   1.929       .  S
C740        C743   1.486       .  S
C740        C741   1.405       .  A
C741        C742   1.405       .  A
C741       Br749   1.933       .  S
C742       Br753   1.927       .  S
C743        C744   1.411       .  A
C743        C748   1.411       .  A
C744        C745   1.404       .  A
C744       Br755   1.932       .  S
C745        C746   1.409       .  A
C745       Br751   1.932       .  S
C746        C747   1.409       .  A
C747        C748   1.410       .  A
C747       Br756   1.930       .  S
C748       Br752   1.927       .  S
C757        C758   1.419       .  A
C757        C762   1.427       .  A
C758        C759   1.413       .  A
C758       Br770   1.931       .  S
C759        C760   1.408       .  A
C759       Br774   1.930       .  S
C760        C763   1.493       .  S
C760        C761   1.404       .  A
C761        C762   1.410       .  A
C761       Br769   1.933       .  S
C762       Br773   1.936       .  S
C763        C764   1.407       .  A
C763        C768   1.404       .  A
C764        C765   1.416       .  A
C764       Br775   1.931       .  S
C765        C766   1.426       .  A
C765       Br771   1.935       .  S
C766        C767   1.430       .  A
C767        C768   1.408       .  A
C767       Br776   1.938       .  S
C768       Br772   1.937       .  S
C777        C778   1.429       .  A
C777        C782   1.433       .  A
C778        C779   1.418       .  A
C778       Br790   1.934       .  S
C779        C780   1.406       .  A
C779       Br794   1.931       .  S
C780        C783   1.498       .  S
C780        C781   1.404       .  A
C781        C782   1.413       .  A
C781       Br789   1.937       .  S
C782       Br793   1.940       .  S
C783        C784   1.411       .  A
C783        C788   1.410       .  A
C784        C785   1.412       .  A
C784       Br795   1.928       .  S
C785        C786   1.413       .  A
C785       Br791   1.931       .  S
C786        C787   1.416       .  A
C787        C788   1.412       .  A
C787       Br796   1.932       .  S
C788       Br792   1.930       .  S
C797        C798   1.422       .  A
C797        C802   1.425       .  A
C798        C799   1.414       .  A
C798       Br810   1.928       .  S
C799        C800   1.407       .  A
C799       Br814   1.931       .  S
C800        C803   1.495       .  S
C800        C801   1.407       .  A
C801        C802   1.412       .  A
C801       Br809   1.935       .  S
C802       Br813   1.935       .  S
C803        C804   1.410       .  A
C803        C808   1.410       .  A
C804        C805   1.410       .  A
C804       Br815   1.930       .  S
C805        C806   1.415       .  A
C805       Br811   1.933       .  S
C806        C807   1.413       .  A
C807        C808   1.413       .  A
C807       Br816   1.926       .  S
C808       Br812   1.929       .  S
C817        C818   1.418       .  A
C817        C822   1.417       .  A
C818        C819   1.418       .  A
C818       Br830   1.926       .  S
C819        C820   1.412       .  A
C819       Br834   1.929       .  S
C820        C823   1.501       .  S
C820        C821   1.407       .  A
C821        C822   1.411       .  A
C821      Br2305   1.930       .  S
C822       Br833   1.925       .  S
C823        C824   1.410       .  A
C823        C828   1.413       .  A
C824       C2301   1.411       .  A
C824       Br835   1.932       .  S
C825        C826   1.415       .  A
C825       C2300   1.411   1_554  A
C825       Br831   1.929       .  S
C826       C2303   1.412   1_554  A
C827        C828   1.416       .  A
C827       C2302   1.412       .  A
C827       Br836   1.929       .  S
C828       Br832   1.926       .  S
Br829      C2297   1.930   1_554  S
C837        C838   1.419       .  A
C837        C842   1.415       .  A
C838        C839   1.405       .  A
C838       Br850   1.935       .  S
C839        C840   1.405       .  A
C839       Br854   1.932       .  S
C840       C2319   1.486       .  S
C840       C2317   1.409       .  A
C841       C2316   1.409       .  A
C841       C2318   1.412       .  A
C841       Br849   1.928       .  S
C842       C2317   1.412       .  A
C842       Br853   1.932       .  S
C843       C2316   1.486       .  S
C843        C844   1.409       .  A
C843        C848   1.407       .  A
C844        C845   1.410       .  A
C844      Br2331   1.932   1_554  S
C845        C846   1.413       .  A
C845       Br851   1.930       .  S
C846        C847   1.416       .  A
C847        C848   1.408       .  A
C847       Br856   1.930       .  S
C848       Br852   1.931       .  S
Br855      C2320   1.932       .  S
C857        C858   1.416       .  A
C857        C862   1.412       .  A
C858        C859   1.403       .  A
C858       Br870   1.934       .  S
C859        C860   1.407       .  A
C859       Br874   1.933       .  S
C860        C863   1.486       .  S
C860        C861   1.410       .  A
C861        C862   1.412       .  A
C861       Br869   1.929       .  S
C862       Br873   1.923       .  S
C863        C864   1.409       .  A
C863        C868   1.410       .  A
C864        C865   1.404       .  A
C864       Br875   1.934       .  S
C865        C866   1.414       .  A
C865       Br871   1.932       .  S
C866        C867   1.413       .  A
C867        C868   1.411       .  A
C867       Br876   1.928       .  S
C868       Br872   1.929       .  S
C877        C878   1.414   1_554  A
C877        C882   1.414       .  A
C878        C879   1.407   1_556  A
C878      Br2366   1.925       .  S
C879        C880   1.406       .  A
C879       Br894   1.930   1_554  S
C880        C883   1.490       .  S
C880        C881   1.411       .  A
C881        C882   1.413       .  A
C881       Br889   1.930       .  S
C882       Br893   1.930       .  S
C883        C884   1.408       .  A
C883        C888   1.408       .  A
C884        C885   1.412       .  A
C884       Br895   1.928       .  S
C885        C886   1.416       .  A
C885       Br891   1.929       .  S
C886        C887   1.419       .  A
C887        C888   1.408       .  A
C887       Br896   1.935       .  S
C888       Br892   1.932       .  S
Br890      C2354   1.925       .  S
C897        C898   1.414       .  A
C897        C902   1.412       .  A
C898        C899   1.405       .  A
C898       Br910   1.934       .  S
C899        C900   1.408       .  A
C899       Br914   1.932       .  S
C900        C903   1.488       .  S
C900        C901   1.411       .  A
C901        C902   1.412       .  A
C901       Br909   1.929       .  S
C902       Br913   1.926       .  S
C903        C904   1.408       .  A
C903        C908   1.412       .  A
C904        C905   1.408       .  A
C904       Br915   1.930       .  S
C905        C906   1.410       .  A
C905       Br911   1.923       .  S
C906        C907   1.409       .  A
C907        C908   1.409       .  A
C907       Br916   1.929       .  S
C908       Br912   1.930       .  S
C917        C918   1.411       .  A
C917        C922   1.412       .  A
C918        C919   1.414       .  A
C918       Br930   1.924       .  S
C919        C920   1.412       .  A
C919       Br934   1.930       .  S
C920        C923   1.498       .  S
C920        C921   1.411       .  A
C921        C922   1.412       .  A
C921       Br929   1.927       .  S
C922       Br933   1.931       .  S
C923        C924   1.413       .  A
C923        C928   1.407       .  A
C924        C925   1.417       .  A
C924       Br935   1.929       .  S
C925        C926   1.416       .  A
C925       Br931   1.927       .  S
C926        C927   1.416       .  A
C927        C928   1.409       .  A
C927       Br936   1.926       .  S
C928       Br932   1.929       .  S
C937        C938   1.416       .  A
C937        C942   1.423       .  A
C938        C939   1.421       .  A
C938       Br950   1.927       .  S
C939        C940   1.415       .  A
C939       Br954   1.928   1_545  S
C940        C943   1.506   1_545  S
C940        C941   1.405       .  A
C941        C942   1.410       .  A
C941       Br949   1.935       .  S
C942       Br953   1.923       .  S
C943        C944   1.416       .  A
C943        C948   1.412       .  A
C944        C945   1.414       .  A
C944       Br955   1.931   1_565  S
C945        C946   1.411       .  A
C945       Br951   1.927       .  S
C946        C947   1.414       .  A
C947        C948   1.415       .  A
C947       Br956   1.929       .  S
C948       Br952   1.929       .  S
C957        C958   1.419       .  A
C957        C962   1.418       .  A
C958        C959   1.410       .  A
C958       Br970   1.922       .  S
C959        C960   1.406       .  A
C959       Br974   1.933       .  S
C960        C963   1.489       .  S
C960        C961   1.408       .  A
C961        C962   1.410       .  A
C961       Br969   1.932       .  S
C962       Br973   1.932       .  S
C963        C964   1.411       .  A
C963        C968   1.407       .  A
C964        C965   1.410       .  A
C964       Br975   1.931       .  S
C965        C966   1.414       .  A
C965       Br971   1.931       .  S
C966        C967   1.417       .  A
C967        C968   1.408       .  A
C967       Br976   1.931       .  S
C968       Br972   1.931       .  S
C977        C978   1.411       .  A
C977        C982   1.413       .  A
C978        C979   1.410       .  A
C978       Br990   1.929       .  S
C979        C980   1.409       .  A
C979       Br994   1.927       .  S
C980       C2459   1.484       .  S
C980        C981   1.409       .  A
C981        C982   1.405       .  A
C981      Br2465   1.933   1_554  S
C982       Br993   1.932   1_554  S
C983       C2456   1.484       .  S
C983        C984   1.407       .  A
C983       C2464   1.411       .  A
C984        C985   1.404       .  A
C984       Br995   1.932       .  S
C985        C986   1.412       .  A
C985       Br991   1.929       .  S
C986        C987   1.408       .  A
C987       C2464   1.410       .  A
C987      Br2472   1.929       .  S
C988       C2459   1.411       .  A
C988       C2463   1.410   1_554  A
C988       Br992   1.927       .  S
Br989      C2457   1.933       .  S
Br996      C2463   1.929   1_554  S
C997        C998   1.408       .  A
C997       C1002   1.412       .  A
C998        C999   1.410       .  A
C998      Br2486   1.929       .  S
C999       C1000   1.412       .  A
C999      Br2490   1.929       .  S
C1000      C2479   1.492       .  S
C1000      C1001   1.409       .  A
C1001      C1002   1.411       .  A
C1001     Br1009   1.930       .  S
C1002     Br1013   1.924       .  S
C1003      C2476   1.492       .  S
C1003      C1004   1.409       .  A
C1003      C1008   1.409       .  A
C1004      C1005   1.412   1_556  A
C1004     Br2491   1.929       .  S
C1005      C1006   1.414       .  A
C1005     Br1011   1.925       .  S
C1006      C1007   1.415       .  A
C1007      C1008   1.409   1_554  A
C1007     Br1016   1.932       .  S
C1008     Br1012   1.930       .  S
Br1010     C2474   1.929   1_554  S
Br1014     C2475   1.929   1_554  S
Br1015     C2480   1.929       .  S
C1017      C1018   1.412       .  A
C1017      C1022   1.415       .  A
C1018      C1019   1.409       .  A
C1018     Br1030   1.931       .  S
C1019      C1020   1.410       .  A
C1019     Br1034   1.929       .  S
C1020      C1023   1.489       .  S
C1020      C1021   1.407       .  A
C1021      C1022   1.410       .  A
C1021     Br1029   1.930       .  S
C1022     Br1033   1.925       .  S
C1023      C1024   1.406       .  A
C1023      C1028   1.411       .  A
C1024      C1025   1.404       .  A
C1024     Br1035   1.933       .  S
C1025      C1026   1.418       .  A
C1025     Br1031   1.937       .  S
C1026      C1027   1.414       .  A
C1027      C1028   1.415       .  A
C1027     Br1036   1.928       .  S
C1028     Br1032   1.927       .  S
C1037      C1042   1.417       .  A
C1037      C2514   1.420       .  A
C1038      C1039   1.412       .  A
C1038      C2513   1.420       .  A
C1038     Br1050   1.926       .  S
C1039      C1040   1.406       .  A
C1039     Br1054   1.931       .  S
C1040      C1043   1.499       .  S
C1040      C2517   1.411       .  A
C1041      C1042   1.417       .  A
C1041      C2516   1.411       .  A
C1041     Br1049   1.929       .  S
C1042     Br1053   1.930       .  S
C1043      C1044   1.413       .  A
C1043      C1048   1.412       .  A
C1044      C1045   1.412       .  A
C1044     Br1055   1.930       .  S
C1045      C1046   1.410       .  A
C1045     Br1051   1.929       .  S
C1046      C1047   1.411       .  A
C1047      C1048   1.414       .  A
C1047     Br1056   1.931       .  S
C1048     Br1052   1.926       .  S
C1057      C1058   1.410       .  A
C1057      C1062   1.414       .  A
C1058      C1059   1.413       .  A
C1058     Br1070   1.929       .  S
C1059      C1060   1.412       .  A
C1059     Br1074   1.927       .  S
C1060      C1063   1.486       .  S
C1060      C1061   1.407       .  A
C1061      C1062   1.402       .  A
C1061     Br1069   1.933       .  S
C1062     Br1073   1.933   1_554  S
C1063      C1064   1.408       .  A
C1063      C1068   1.407       .  A
C1064      C1065   1.411       .  A
C1064     Br1075   1.929       .  S
C1065      C1066   1.415       .  A
C1065     Br1071   1.929       .  S
C1066      C1067   1.419       .  A
C1067      C1068   1.407       .  A
C1067     Br1076   1.932       .  S
C1068     Br1072   1.934       .  S
C1077      C1078   1.419       .  A
C1077      C1082   1.418       .  A
C1078      C1079   1.404       .  A
C1078     Br1090   1.936       .  S
C1079      C1080   1.405       .  A
C1079     Br1094   1.933       .  S
C1080      C1083   1.488       .  S
C1080      C1081   1.410       .  A
C1081      C1082   1.415       .  A
C1081     Br1089   1.929       .  S
C1082     Br1093   1.930       .  S
C1083      C1084   1.410       .  A
C1083      C1088   1.408       .  A
C1084      C1085   1.409       .  A
C1084     Br1095   1.930       .  S
C1085      C1086   1.412       .  A
C1085     Br1091   1.932       .  S
C1086      C1087   1.413       .  A
C1087      C1088   1.408       .  A
C1087     Br1096   1.930       .  S
C1088     Br1092   1.929       .  S
C1097      C1098   1.418       .  A
C1097      C1102   1.413       .  A
C1098      C1099   1.409       .  A
C1098     Br1110   1.933       .  S
C1099      C1100   1.408       .  A
C1099     Br1114   1.933       .  S
C1100      C1103   1.500       .  S
C1100      C1101   1.413       .  A
C1101      C1102   1.418       .  A
C1101     Br1109   1.927       .  S
C1102     Br1113   1.927       .  S
C1103      C1104   1.407       .  A
C1103      C1108   1.413       .  A
C1104      C1105   1.408       .  A
C1104     Br1115   1.933       .  S
C1105      C1106   1.422       .  A
C1105     Br1111   1.936       .  S
C1106      C1107   1.416       .  A
C1107      C1108   1.419       .  A
C1107     Br1116   1.928       .  S
C1108     Br1112   1.928       .  S
C1117      C1118   1.416       .  A
C1117      C1122   1.412       .  A
C1118      C1119   1.407       .  A
C1118     Br1130   1.923       .  S
C1119      C1120   1.405       .  A
C1119     Br1134   1.931       .  S
C1120      C1123   1.484       .  S
C1120      C1121   1.410       .  A
C1121      C1122   1.409       .  A
C1121     Br1129   1.932       .  S
C1122     Br1133   1.930       .  S
C1123      C1124   1.408       .  A
C1123      C1128   1.407       .  A
C1124      C1125   1.404       .  A
C1124     Br1135   1.931       .  S
C1125      C1126   1.414       .  A
C1125     Br1131   1.934       .  S
C1126      C1127   1.415       .  A
C1127      C1128   1.410       .  A
C1127     Br1136   1.925       .  S
C1128     Br1132   1.930       .  S
C1137      C1138   1.412       .  A
C1137      C1142   1.417       .  A
C1138      C1139   1.407       .  A
C1138     Br1150   1.931       .  S
C1139      C1140   1.409       .  A
C1139     Br1154   1.930       .  S
C1140      C1143   1.488       .  S
C1140      C1141   1.407       .  A
C1141      C1142   1.412       .  A
C1141     Br1149   1.931       .  S
C1142     Br1153   1.922       .  S
C1143      C1144   1.410       .  A
C1143      C1148   1.407       .  A
C1144      C1145   1.410       .  A
C1144     Br1155   1.931       .  S
C1145      C1146   1.412       .  A
C1145     Br1151   1.930       .  S
C1146      C1147   1.413       .  A
C1147      C1148   1.408       .  A
C1147     Br1156   1.924       .  S
C1148     Br1152   1.929       .  S
C1157      C1158   1.409       .  A
C1157      C1162   1.411       .  A
C1158      C1159   1.409       .  A
C1158     Br1170   1.916       .  S
C1159      C1160   1.408       .  A
C1159     Br1174   1.929       .  S
C1160      C1163   1.482   1_655  S
C1160      C1161   1.407       .  A
C1161      C1162   1.405       .  A
C1161     Br1169   1.933       .  S
C1162     Br1173   1.927       .  S
C1163      C1164   1.407       .  A
C1163      C1168   1.401       .  A
C1164      C1165   1.412       .  A
C1164     Br1175   1.931   1_455  S
C1165      C1166   1.420       .  A
C1165     Br1171   1.932       .  S
C1166      C1167   1.432       .  A
C1167      C1168   1.405       .  A
C1167     Br1176   1.942       .  S
C1168     Br1172   1.937       .  S
C1177      C1178   1.411       .  A
C1177      C1182   1.411       .  A
C1178      C1179   1.406       .  A
C1178     Br2666   1.930       .  S
C1179      C1180   1.407       .  A
C1179     Br1194   1.929       .  S
C1180      C1183   1.480       .  S
C1180      C1181   1.407       .  A
C1181      C1182   1.407       .  A
C1181     Br1189   1.932       .  S
C1182     Br1193   1.919       .  S
C1183      C1184   1.410       .  A
C1183      C1188   1.406       .  A
C1184      C1185   1.406       .  A
C1184     Br1195   1.931       .  S
C1185      C1186   1.408       .  A
C1185     Br1191   1.929       .  S
C1186      C1187   1.412       .  A
C1187      C1188   1.407       .  A
C1187     Br1196   1.922       .  S
C1188     Br1192   1.930       .  S
Br1190     C2654   1.930       .  S
C1197      C1198   1.413       .  A
C1197      C1202   1.415       .  A
C1198      C1199   1.412       .  A
C1198     Br1210   1.930       .  S
C1199      C1200   1.410       .  A
C1199     Br1214   1.930       .  S
C1200      C1203   1.493       .  S
C1200      C1201   1.409       .  A
C1201      C1202   1.411       .  A
C1201     Br1209   1.930       .  S
C1202     Br1213   1.930       .  S
C1203      C1204   1.410       .  A
C1203      C1208   1.407       .  A
C1204      C1205   1.416       .  A
C1204     Br1215   1.929       .  S
C1205      C1206   1.418       .  A
C1205     Br1211   1.929       .  S
C1206      C1207   1.418       .  A
C1207      C1208   1.407       .  A
C1207     Br1216   1.934       .  S
C1208     Br1212   1.933       .  S
C1217      C1218   1.415       .  A
C1217      C1222   1.411       .  A
C1218      C1219   1.408       .  A
C1218     Br1230   1.927       .  S
C1219      C1220   1.409       .  A
C1219     Br1234   1.932       .  S
C1220      C1223   1.490       .  S
C1220      C1221   1.408       .  A
C1221      C1222   1.411       .  A
C1221     Br1229   1.928       .  S
C1222     Br1233   1.919       .  S
C1223      C1224   1.412       .  A
C1223      C1228   1.406       .  A
C1224      C1225   1.414       .  A
C1224     Br1235   1.928       .  S
C1225      C1226   1.410       .  A
C1225     Br1231   1.927       .  S
C1226      C1227   1.416       .  A
C1227      C1228   1.406       .  A
C1227     Br1236   1.929       .  S
C1228     Br1232   1.932       .  S
C1237      C1238   1.412       .  A
C1237      C1242   1.418       .  A
C1238      C1239   1.414       .  A
C1238     Br1250   1.929       .  S
C1239      C1240   1.412       .  A
C1239     Br1254   1.930       .  S
C1240      C1243   1.502       .  S
C1240      C1241   1.410       .  A
C1241      C1242   1.416       .  A
C1241     Br1249   1.929       .  S
C1242     Br2729   1.928       .  S
C1243      C1244   1.411       .  A
C1243      C1248   1.410       .  A
C1244      C1245   1.417       .  A
C1244     Br1255   1.927       .  S
C1245      C1246   1.416       .  A
C1245     Br1251   1.926       .  S
C1246      C1247   1.417       .  A
C1247      C1248   1.412       .  A
C1247     Br1256   1.933       .  S
C1248     Br1252   1.930       .  S
Br1253     C2718   1.928       .  S
C1257      C1258   1.422   1_556  A
C1257      C2738   1.427       .  A
C1258      C2735   1.423   1_554  A
C1258     Br1270   1.930       .  S
C1259      C1260   1.413       .  A
C1259      C2734   1.423       .  A
C1259     Br2750   1.928       .  S
C1260      C1263   1.505       .  S
C1260      C1261   1.405       .  A
C1261      C1262   1.411       .  A
C1261     Br1269   1.935       .  S
C1262      C2733   1.427       .  A
C1262     Br1273   1.933       .  S
C1263      C1264   1.407       .  A
C1263      C1268   1.415       .  A
C1264      C1265   1.411       .  A
C1264     Br2751   1.934       .  S
C1265      C1266   1.424       .  A
C1265     Br1271   1.937       .  S
C1266      C1267   1.417       .  A
C1267      C1268   1.422       .  A
C1267     Br1276   1.928       .  S
C1268     Br1272   1.927       .  S
Br1274     C2735   1.928   1_554  S
Br1275     C2740   1.934   1_554  S
C1277      C1278   1.422       .  A
C1277      C1282   1.419       .  A
C1278      C1279   1.404       .  A
C1278     Br1290   1.933       .  S
C1279      C1280   1.406       .  A
C1279     Br1294   1.938       .  S
C1280      C1283   1.482       .  S
C1280      C1281   1.405       .  A
C1281      C1282   1.410       .  A
C1281     Br1289   1.929       .  S
C1282     Br1293   1.928       .  S
C1283      C1284   1.409       .  A
C1283      C1288   1.402       .  A
C1284      C1285   1.411       .  A
C1284     Br1295   1.929       .  S
C1285      C1286   1.413       .  A
C1285     Br1291   1.922       .  S
C1286      C1287   1.420       .  A
C1287      C1288   1.403       .  A
C1287     Br1296   1.925       .  S
C1288     Br1292   1.935       .  S
C1297      C1298   1.414       .  A
C1297      C1302   1.417       .  A
C1298      C1299   1.413   1_554  A
C1298     Br1310   1.927       .  S
C1299      C1300   1.409       .  A
C1299     Br2790   1.929       .  S
C1300      C2779   1.486       .  S
C1300      C1301   1.406   1_556  A
C1301      C1302   1.404       .  A
C1301     Br1309   1.933       .  S
C1302     Br1313   1.935       .  S
C1303      C2776   1.486       .  S
C1303      C1304   1.409       .  A
C1303      C1308   1.407       .  A
C1304      C1305   1.409       .  A
C1304     Br2791   1.931       .  S
C1305      C1306   1.412       .  A
C1305     Br1311   1.931       .  S
C1306      C1307   1.417       .  A
C1307      C1308   1.409       .  A
C1307     Br1316   1.931       .  S
C1308     Br1312   1.931       .  S
Br1314     C2775   1.929       .  S
Br1315     C2780   1.931   1_554  S
C1317      C1318   1.416       .  A
C1317      C1322   1.415       .  A
C1318      C1319   1.410       .  A
C1318     Br1330   1.931       .  S
C1319      C1320   1.408       .  A
C1319     Br2810   1.932   1_554  S
C1320      C2799   1.485       .  S
C1320      C1321   1.406       .  A
C1321      C1322   1.407       .  A
C1321     Br1329   1.931       .  S
C1322     Br1333   1.929       .  S
C1323      C2796   1.485       .  S
C1323      C1328   1.406       .  A
C1323      C2800   1.406       .  A
C1324      C2799   1.406   1_556  A
C1324      C2801   1.406       .  A
C1324     Br1335   1.934       .  S
C1325      C1326   1.422       .  A
C1325      C2800   1.406       .  A
C1325     Br1331   1.937       .  S
C1326      C1327   1.420       .  A
C1327      C1328   1.410       .  A
C1327     Br1336   1.929       .  S
C1328     Br1332   1.931       .  S
Br1334     C2795   1.932       .  S
C1337      C1338   1.410       .  A
C1337      C1342   1.413       .  A
C1338      C1339   1.413       .  A
C1338     Br1350   1.929       .  S
C1339      C1340   1.411       .  A
C1339     Br1354   1.927       .  S
C1340      C1343   1.486       .  S
C1340      C1341   1.407       .  A
C1341      C1342   1.403       .  A
C1341     Br1349   1.931       .  S
C1342     Br1353   1.935       .  S
C1343      C1344   1.408       .  A
C1343      C1348   1.406       .  A
C1344      C1345   1.414       .  A
C1344     Br1355   1.928       .  S
C1345      C1346   1.417       .  A
C1345     Br1351   1.930       .  S
C1346      C1347   1.416       .  A
C1347      C1348   1.405       .  A
C1347     Br1356   1.927       .  S
C1348     Br1352   1.936       .  S
C1357      C1358   1.421       .  A
C1357      C1362   1.430       .  A
C1358      C1359   1.418       .  A
C1358     Br1370   1.927       .  S
C1359      C1360   1.410       .  A
C1359     Br1374   1.930   1_655  S
C1360      C1363   1.500   1_655  S
C1360      C1361   1.404       .  A
C1361      C1362   1.411       .  A
C1361     Br1369   1.935       .  S
C1362     Br1373   1.937       .  S
C1363      C1364   1.408       .  A
C1363      C1368   1.411       .  A
C1364      C1365   1.410       .  A
C1364     Br1375   1.932       .  S
C1365      C1366   1.421       .  A
C1365     Br1371   1.937       .  S
C1366      C1367   1.417       .  A
C1367      C1368   1.417       .  A
C1367     Br1376   1.928       .  S
C1368     Br1372   1.929       .  S
C1377      C1378   1.412       .  A
C1377      C1382   1.417       .  A
C1378      C1379   1.418       .  A
C1378     Br1390   1.926       .  S
C1379      C1380   1.415       .  A
C1379     Br1394   1.926       .  S
C1380      C1383   1.496       .  S
C1380      C1381   1.408       .  A
C1381      C1382   1.405       .  A
C1381     Br1389   1.934       .  S
C1382     Br1393   1.935       .  S
C1383      C1384   1.401       .  A
C1383      C1388   1.412       .  A
C1384      C1385   1.407       .  A
C1384     Br1395   1.938       .  S
C1385      C1386   1.431       .  A
C1385     Br1391   1.934       .  S
C1386      C1387   1.420       .  A
C1387      C1388   1.420       .  A
C1387     Br1396   1.928       .  S
C1388     Br1392   1.928       .  S
C1397      C1398   1.413       .  A
C1397      C1402   1.415       .  A
C1398      C1399   1.410       .  A
C1398     Br1410   1.926       .  S
C1399      C1400   1.409       .  A
C1399     Br1414   1.929       .  S
C1400      C1403   1.485       .  S
C1400      C1401   1.405       .  A
C1401      C1402   1.405       .  A
C1401     Br1409   1.935       .  S
C1402     Br1413   1.920       .  S
C1403      C1404   1.406       .  A
C1403      C1408   1.408       .  A
C1404      C1405   1.404       .  A
C1404     Br1415   1.936       .  S
C1405      C1406   1.419       .  A
C1405     Br1411   1.929       .  S
C1406      C1407   1.415       .  A
C1407      C1408   1.412       .  A
C1407     Br1416   1.926       .  S
C1408     Br1412   1.929       .  S
C1417      C1418   1.419       .  A
C1417      C1422   1.421       .  A
C1418      C1419   1.414       .  A
C1418     Br1430   1.927       .  S
C1419      C1420   1.408       .  A
C1419     Br1434   1.930       .  S
C1420      C1423   1.491       .  S
C1420      C1421   1.407       .  A
C1421      C1422   1.410       .  A
C1421     Br1429   1.935       .  S
C1422     Br1433   1.932       .  S
C1423      C1424   1.412       .  A
C1423      C1428   1.407       .  A
C1424      C1425   1.413       .  A
C1424     Br1435   1.927       .  S
C1425      C1426   1.410       .  A
C1425     Br2907   1.930       .  S
C1426      C1427   1.412       .  A
C1427      C1428   1.407       .  A
C1427     Br1436   1.920       .  S
C1428     Br1432   1.932       .  S
Br1431     C2901   1.930       .  S
C1437      C1438   1.414       .  A
C1437      C1442   1.415       .  A
C1438      C1439   1.411       .  A
C1438     Br1450   1.930       .  S
C1439      C1440   1.410       .  A
C1439     Br1454   1.931       .  S
C1440      C1443   1.488       .  S
C1440      C1441   1.407       .  A
C1441      C1442   1.407       .  A
C1441     Br1449   1.932   1_554  S
C1442     Br1453   1.931   1_554  S
C1443      C1444   1.404       .  A
C1443      C1448   1.405       .  A
C1444      C1445   1.406       .  A
C1444     Br1455   1.936       .  S
C1445      C1446   1.428       .  A
C1445     Br1451   1.940       .  S
C1446      C1447   1.428       .  A
C1447      C1448   1.413       .  A
C1447     Br1456   1.934       .  S
C1448     Br1452   1.932       .  S
C1457      C1458   1.422       .  A
C1457      C1462   1.423       .  A
C1458      C1459   1.415       .  A
C1458     Br1470   1.934       .  S
C1459      C1460   1.409       .  A
C1459     Br1474   1.931       .  S
C1460      C1463   1.496       .  S
C1460      C1461   1.409       .  A
C1461      C1462   1.410       .  A
C1461     Br1469   1.937       .  S
C1462     Br1473   1.934       .  S
C1463      C1464   1.412       .  A
C1463      C1468   1.411       .  A
C1464      C1465   1.412       .  A
C1464     Br1475   1.929       .  S
C1465      C1466   1.411       .  A
C1465     Br1471   1.929       .  S
C1466      C1467   1.412       .  A
C1467      C1468   1.409       .  A
C1467     Br1476   1.926       .  S
C1468     Br1472   1.931       .  S
O1477     Cr1495   1.986       .  S
O1477      C1485   1.265       .  A
O1478     Cr1495   1.980       .  S
O1478      C1479   1.255       .  A
C1479      O1480   1.259       .  A
C1479      C2933   1.503       .  S
O1480     Cr1496   2.000       .  S
O1481     Cr1496   2.010       .  S
O1481      C1482   1.270       .  A
C1482      O1483   1.267       .  A
C1482      C2842   1.501       .  S
O1483     Cr1497   2.002       .  S
O1484     Cr1497   1.995       .  S
O1484      C1485   1.267       .  A
C1485      C2922   1.508       .  S
O1486     Cr1495   1.983       .  S
O1486      C1494   1.256       .  A
O1487     Cr1495   2.002       .  S
O1487      C1488   1.266       .  A
C1488      O1489   1.264       .  A
C1488      C2873   1.486       .  S
O1489     Cr1496   1.993       .  S
O1490     Cr1496   1.993       .  S
O1490      C1491   1.257       .  A
C1491      O1492   1.273       .  A
C1491      C2862   1.512       .  S
O1492     Cr1497   2.034       .  S
O1493     Cr1497   2.007       .  S
O1493      C1494   1.261       .  A
C1494      C2893   1.499       .  S
Cr1495     O1498   1.783       .  S
Cr1496     O1498   1.776       .  S
Cr1497     O1498   1.777       .  S
O1499     Cr1517   1.956   1_655  S
O1499      C1507   1.262       .  A
O1500     Cr1517   1.994   1_655  S
O1500      C1501   1.257       .  A
C1501      O1502   1.259       .  A
C1501      C2822   1.490       .  S
O1502     Cr1518   2.002       .  S
O1503     Cr1518   2.045       .  S
O1503      C1504   1.273       .  A
C1504      O1505   1.254       .  A
C1504      C2742   1.508       .  S
O1505     Cr1519   1.962   1_655  S
O1506     Cr1519   2.043   1_655  S
O1506      C1507   1.279       .  A
C1507      C2802   1.493       .  S
O1508     Cr1517   2.003       .  S
O1508      C1516   1.258       .  A
O1509     Cr1517   1.958       .  S
O1509      C1510   1.263       .  A
C1510      O1511   1.280       .  A
C1510      C2762   1.492       .  S
O1511     Cr1518   2.041   1_455  S
O1512     Cr1518   1.945   1_455  S
O1512      C1513   1.252       .  A
C1513      O1514   1.275       .  A
C1513      C2853   1.490       .  S
O1514     Cr1519   2.047       .  S
O1515     Cr1519   1.988       .  S
O1515      C1516   1.259       .  A
C1516      C2782   1.485       .  S
Cr1517     O1520   1.769       .  S
Cr1518     O1520   1.769   1_655  S
Cr1519     O1520   1.765       .  S
O1521     Cr1539   1.950       .  S
O1522     Cr1539   2.000       .  S
O1522      C1523   1.253       .  A
C1523      O1524   1.252       .  A
C1523      C2673   1.488       .  S
O1524     Cr1540   1.994       .  S
O1525     Cr1540   2.032       .  S
O1525      C1526   1.271       .  A
C1526      O1527   1.259       .  A
C1526      C2733   1.517       .  S
O1528     Cr1541   2.050   1_556  S
O1528      C1529   1.284       .  A
C1529      C2653   1.476       .  S
O1530     Cr1539   2.002       .  S
O1531     Cr1539   1.943       .  S
O1531      C1532   1.262       .  A
C1532      O1533   1.287       .  A
C1532      C2702   1.484       .  S
O1533     Cr1540   2.064       .  S
O1534     Cr1540   1.957       .  S
O1534      C1535   1.254       .  A
C1535      O1536   1.273       .  A
C1535      C2833   1.513       .  S
O1537     Cr1541   2.008       .  S
O1537      C1538   1.257   1_554  A
C1538      C2713   1.497       .  S
Cr1539     O1542   1.783       .  S
Cr1540     O1542   1.780       .  S
O1543     Cr1561   2.003       .  S
O1543      C1551   1.258       .  A
O1544     Cr1561   1.962       .  S
O1544      C1545   1.264       .  A
C1545      O1546   1.283       .  A
C1545      C2722   1.499       .  S
O1546     Cr1562   2.059       .  S
O1547     Cr1562   1.960       .  S
O1547      C1548   1.254       .  A
C1548      O1549   1.268       .  A
C1548      C2633   1.478       .  S
O1549     Cr1563   2.023       .  S
O1550     Cr1563   1.998       .  S
O1550      C1551   1.259       .  A
C1551      C2693   1.489       .  S
O1552     Cr1561   1.957       .  S
O1552      C1560   1.261       .  A
O1553     Cr1561   2.003       .  S
O1553      C1554   1.258       .  A
C1554      O1555   1.255       .  A
C1554      C2622   1.484       .  S
O1555     Cr1562   1.989       .  S
O1556     Cr1562   2.039       .  S
O1556      C1557   1.273       .  A
C1557      O1558   1.254       .  A
C1557      C2573   1.494       .  S
O1558     Cr1563   1.956       .  S
O1559     Cr1563   2.037       .  S
O1559      C1560   1.276       .  A
C1560      C2602   1.481       .  S
Cr1561     O1564   1.771       .  S
Cr1562     O1564   1.778       .  S
Cr1563     O1564   1.778       .  S
O1565     Cr1583   1.997       .  S
O1565      C1573   1.250       .  A
O1566     Cr1583   1.940       .  S
C1567      O1568   1.288       .  A
C1567      C2533   1.478       .  S
O1568     Cr1584   2.056       .  S
O1569      C1570   1.259   1_554  A
C1570      O1571   1.269       .  A
C1570      C2513   1.501   1_556  S
O1571     Cr1585   2.019       .  S
O1572     Cr1585   1.983       .  S
O1572      C1573   1.249       .  A
C1573      C2562   1.481       .  S
O1574     Cr1583   1.953       .  S
O1574      C1582   1.266       .  A
O1575     Cr1583   1.989       .  S
C1576      O1577   1.250       .  A
C1576      C2913   1.485       .  S
O1577     Cr1584   1.997       .  S
O1578      C1579   1.269       .  A
C1579      O1580   1.252       .  A
C1579      C2642   1.499       .  S
O1580     Cr1585   1.950       .  S
O1581     Cr1585   2.065       .  S
O1581      C1582   1.289       .  A
C1582      C2942   1.481       .  S
Cr1583     O1586   1.780       .  S
Cr1585     O1586   1.770       .  S
O1587     Cr1605   2.010   1_455  S
O1587      C1595   1.263       .  A
O1588     Cr1605   1.961   1_455  S
O1588      C1589   1.261       .  A
C1589      O1590   1.276       .  A
C1589      C2482   1.490       .  S
O1590     Cr1606   2.043   1_455  S
O1591     Cr1606   1.963   1_455  S
O1591      C1592   1.255       .  A
C1592      O1593   1.270       .  A
C1592      C2522   1.485       .  S
O1593     Cr1607   2.036       .  S
O1594     Cr1607   1.988       .  S
O1594      C1595   1.260       .  A
C1595      C2493   1.487       .  S
O1596     Cr1605   1.974       .  S
O1596      C1604   1.262       .  A
O1597     Cr1605   1.996       .  S
O1597      C1598   1.260       .  A
C1598      O1599   1.260       .  A
C1598      C2453   1.478       .  S
O1599     Cr1606   1.991       .  S
O1600     Cr1606   2.047       .  S
O1600      C1601   1.273       .  A
C1601      O1602   1.254       .  A
C1601      C2582   1.501       .  S
O1602     Cr1607   1.963   1_655  S
O1603     Cr1607   2.035   1_655  S
O1603      C1604   1.273       .  A
C1604      C2433   1.496       .  S
Cr1605     O1608   1.768       .  S
Cr1606     O1608   1.775       .  S
Cr1607     O1608   1.768   1_455  S
O1609     Cr1627   1.953       .  S
O1609      C1617   1.258       .  A
O1610     Cr1627   1.996       .  S
O1610      C1611   1.259       .  A
C1611      O1612   1.261       .  A
C1611      C2542   1.490       .  S
O1612     Cr1628   1.995       .  S
O1613     Cr1628   2.039       .  S
O1613      C1614   1.272       .  A
C1614      O1615   1.260       .  A
C1614      C2402   1.503       .  S
O1615     Cr1629   1.969       .  S
O1616     Cr1629   2.048       .  S
O1616      C1617   1.275       .  A
C1617      C2553   1.496       .  S
O1618     Cr1627   2.003       .  S
O1618      C1626   1.261       .  A
O1619     Cr1627   1.955       .  S
O1619      C1620   1.260       .  A
C1620      O1621   1.275       .  A
C1620      C2362   1.492       .  S
O1621     Cr1628   2.041       .  S
O1622     Cr1628   1.978       .  S
O1622      C1623   1.259       .  A
C1623      O1624   1.271       .  A
C1623      C2422   1.497       .  S
O1624     Cr1629   2.033       .  S
O1625     Cr1629   1.990       .  S
O1625      C1626   1.258       .  A
C1626      C2382   1.479       .  S
Cr1627     O1630   1.768       .  S
Cr1628     O1630   1.775       .  S
Cr1629     O1630   1.778       .  S
O1631     Cr1649   1.947       .  S
O1631      C1639   1.257       .  A
O1632     Cr1649   1.996       .  S
O1632      C1633   1.258       .  A
C1633      O1634   1.261       .  A
C1633      C2473   1.481       .  S
O1634     Cr1650   2.000       .  S
O1635     Cr1650   2.033       .  S
O1635      C1636   1.271       .  A
C1636      O1637   1.259       .  A
C1636      C2393   1.489       .  S
O1637     Cr1651   1.969   1_565  S
O1638     Cr1651   2.052   1_565  S
O1638      C1639   1.277       .  A
C1639      C2502   1.489       .  S
O1640     Cr1649   1.996   1_545  S
O1640      C1648   1.259       .  A
O1641     Cr1649   1.952   1_545  S
O1641      C1642   1.259       .  A
C1642      O1643   1.275       .  A
C1642      C2313   1.492       .  S
O1643     Cr1650   2.043   1_545  S
O1644     Cr1650   1.980   1_545  S
O1644      C1645   1.262       .  A
C1645      O1646   1.272       .  A
C1645      C2293   1.509       .  S
O1646     Cr1651   2.036       .  S
O1647     Cr1651   1.989       .  S
O1647      C1648   1.258       .  A
C1648      C2342   1.481       .  S
Cr1649     O1652   1.764       .  S
Cr1650     O1652   1.775       .  S
Cr1651     O1652   1.776   1_545  S
O1653     Cr1671   1.997       .  S
O1653      C1661   1.260       .  A
O1654     Cr1671   1.969       .  S
C1655      O1656   1.269   1_554  A
C1655      C2233   1.503   1_554  S
O1656     Cr1672   2.035   1_556  S
O1657      C1658   1.277       .  A
C1658      O1659   1.264       .  A
C1658      C2413   1.508       .  S
O1659     Cr1673   2.003       .  S
O1660     Cr1673   1.991       .  S
O1660      C1661   1.261       .  A
C1661      C2213   1.485       .  S
O1662     Cr1671   1.981       .  S
O1662      C1670   1.260       .  A
O1663      C1664   1.263       .  A
C1664      O1665   1.266       .  A
C1664      C2253   1.521       .  S
O1665     Cr1672   2.009   1_556  S
O1666      C1667   1.265       .  A
C1667      O1668   1.270       .  A
C1667      C2302   1.491       .  S
O1668     Cr1673   2.010       .  S
O1669     Cr1673   2.013       .  S
O1669      C1670   1.266       .  A
C1670      C2273   1.508       .  S
Cr1671     O1674   1.779       .  S
Cr1673     O1674   1.766       .  S
O1675     Cr1693   2.007       .  S
O1675      C1683   1.258       .  A
O1676     Cr1693   1.947       .  S
O1676      C1677   1.261       .  A
C1677      O1678   1.282       .  A
C1677      C2813   1.477       .  S
O1678     Cr1694   2.048   1_545  S
O1679     Cr1694   1.954   1_545  S
O1679      C1680   1.254       .  A
C1680      O1681   1.273       .  A
C1680      C2182   1.510       .  S
O1681     Cr1695   2.039       .  S
O1682     Cr1695   1.983       .  S
O1682      C1683   1.252       .  A
C1683      C2793   1.485       .  S
O1684     Cr1693   1.946   1_565  S
O1684      C1692   1.260       .  A
O1685     Cr1693   2.001   1_565  S
O1685      C1686   1.257       .  A
C1686      O1687   1.256       .  A
C1686      C2153   1.482       .  S
O1687     Cr1694   1.992       .  S
O1688     Cr1694   2.035       .  S
O1688      C1689   1.272       .  A
C1689      O1690   1.251       .  A
C1689      C2202   1.496       .  S
O1690     Cr1695   1.945   1_565  S
O1691     Cr1695   2.054   1_565  S
O1691      C1692   1.281       .  A
C1692      C2142   1.481       .  S
Cr1693     O1696   1.774       .  S
Cr1694     O1696   1.776   1_565  S
Cr1695     O1696   1.770       .  S
O1697     Cr1715   2.005       .  S
O1698     Cr1715   1.948       .  S
O1698      C1699   1.259       .  A
C1699      O1700   1.279       .  A
C1699      C2373   1.483       .  S
O1700     Cr1716   2.050       .  S
O1701     Cr1716   1.962       .  S
O1701      C1702   1.256       .  A
C1702      O1703   1.272       .  A
C1702      C2082   1.485       .  S
O1704     Cr1717   1.994       .  S
O1704      C1705   1.260       .  A
C1705      C2353   1.489       .  S
O1706      C1714   1.260       .  A
O1707     Cr1715   1.998       .  S
O1707      C1708   1.259       .  A
C1708      O1709   1.262       .  A
C1708      C2113   1.485       .  S
O1709     Cr1716   2.003       .  S
O1710     Cr1716   2.047       .  S
O1710      C1711   1.273       .  A
C1711      O1712   1.250   1_556  A
C1711      C2193   1.494   1_556  S
O1713     Cr1717   2.040       .  S
O1713      C1714   1.276       .  A
C1714      C2093   1.485       .  S
Cr1715     O1718   1.762       .  S
Cr1716     O1718   1.775       .  S
O1719     Cr1737   2.004       .  S
O1719      C1727   1.261       .  A
O1720     Cr1737   1.962       .  S
O1720      C1721   1.261       .  A
C1721      O1722   1.275       .  A
C1721      C2682   1.497       .  S
O1722     Cr1738   2.044       .  S
O1723     Cr1738   1.958       .  S
O1723      C1724   1.254       .  A
C1724      O1725   1.268       .  A
C1724      C2173   1.476       .  S
O1725     Cr1739   2.022       .  S
O1726     Cr1739   1.984       .  S
O1726      C1727   1.256       .  A
C1727      C2662   1.475       .  S
O1728     Cr1737   1.969       .  S
O1728      C1736   1.256       .  A
O1729     Cr1737   1.997       .  S
O1729      C1730   1.260       .  A
C1730      O1731   1.256       .  A
C1730      C2222   1.472       .  S
O1731     Cr1738   1.983       .  S
O1732     Cr1738   2.038       .  S
O1732      C1733   1.272       .  A
C1733      O1734   1.259       .  A
C1733      C2073   1.511       .  S
O1734     Cr1739   1.968       .  S
O1735     Cr1739   2.040       .  S
O1735      C1736   1.277       .  A
C1736      C2242   1.512       .  S
Cr1737     O1740   1.765       .  S
Cr1738     O1740   1.772       .  S
Cr1739     O1740   1.773       .  S
O1741     Cr1759   2.007       .  S
O1741      C1749   1.263       .  A
O1742     Cr1759   1.953       .  S
O1742      C1743   1.257       .  A
C1743      O1744   1.274       .  A
C1743      C1993   1.475       .  S
O1744     Cr1760   2.034       .  S
O1745     Cr1760   1.950       .  S
O1745      C1746   1.250       .  A
C1746      O1747   1.276       .  A
C1746      C2053   1.507       .  S
O1747     Cr1761   2.060       .  S
O1748     Cr1761   1.998       .  S
O1748      C1749   1.262       .  A
C1749      C2022   1.490       .  S
O1750     Cr1759   1.963       .  S
O1750      C1758   1.263       .  A
O1751     Cr1759   2.019       .  S
O1751      C1752   1.264       .  A
C1752      O1753   1.256       .  A
C1752      C2262   1.490       .  S
O1753     Cr1760   1.981       .  S
O1754     Cr1760   2.034       .  S
O1754      C1755   1.272       .  A
C1755      O1756   1.254       .  A
C1755      C2042   1.479       .  S
O1756     Cr1761   1.957       .  S
O1757     Cr1761   2.049       .  S
O1757      C1758   1.278       .  A
C1758      C2282   1.491       .  S
Cr1759     O1762   1.767       .  S
Cr1760     O1762   1.771       .  S
Cr1761     O1762   1.773       .  S
O1763     Cr1781   1.999       .  S
O1763      C1771   1.255       .  A
O1764     Cr1781   1.952       .  S
O1764      C1765   1.263       .  A
C1765      O1766   1.280       .  A
C1765      C2333   1.484       .  S
O1766     Cr1782   2.046       .  S
O1767     Cr1782   1.948       .  S
O1767      C1768   1.254       .  A
C1768      O1769   1.273       .  A
C1768      C2033   1.508       .  S
O1769     Cr1783   2.039       .  S
O1770     Cr1783   1.992       .  S
O1770      C1771   1.255       .  A
C1771      C2322   1.485       .  S
O1772     Cr1781   1.950       .  S
O1772      C1780   1.262       .  A
O1773     Cr1781   1.985       .  S
O1773      C1774   1.253       .  A
C1774      O1775   1.256       .  A
C1774      C2753   1.493       .  S
O1775     Cr1782   1.993       .  S
O1776     Cr1782   2.026       .  S
O1776      C1777   1.269       .  A
C1777      O1778   1.255       .  A
C1777      C1982   1.504       .  S
O1778     Cr1783   1.963       .  S
O1779     Cr1783   2.052       .  S
O1779      C1780   1.282       .  A
C1780      C2773   1.485       .  S
Cr1781     O1784   1.773       .  S
Cr1782     O1784   1.777       .  S
Cr1783     O1784   1.769       .  S
O1785     Cr1803   1.994       .  S
O1786     Cr1803   1.960       .  S
O1786      C1787   1.266       .  A
C1787      O1788   1.277       .  A
C1787      C1942   1.489       .  S
O1788     Cr1804   2.038       .  S
O1789     Cr1804   1.966       .  S
O1789      C1790   1.257       .  A
C1790      O1791   1.271       .  A
C1790      C2062   1.496       .  S
O1792     Cr1805   1.989       .  S
O1792      C1793   1.256       .  A
C1793      C1962   1.481       .  S
O1794      C1802   1.266       .  A
O1795     Cr1803   1.980       .  S
O1795      C1796   1.254       .  A
C1796      O1797   1.261       .  A
C1796      C2882   1.490       .  S
O1797     Cr1804   2.009       .  S
O1798     Cr1804   2.032       .  S
O1798      C1799   1.270       .  A
C1799      O1800   1.254   1_556  A
C1799      C1973   1.491       .  S
O1801     Cr1805   2.042       .  S
O1801      C1802   1.279       .  A
C1802      C2902   1.483       .  S
Cr1803     O1806   1.777       .  S
Cr1804     O1806   1.780       .  S
O1807     Cr1825   1.964       .  S
O1807      C1815   1.262       .  A
O1808     Cr1825   1.993       .  S
O1808      C1809   1.260       .  A
C1809      O1810   1.263       .  A
C1809      C1933   1.505       .  S
O1810     Cr1826   1.997       .  S
O1811     Cr1826   2.052       .  S
O1811      C1812   1.273       .  A
C1812      O1813   1.249       .  A
C1812      C1922   1.493       .  S
O1813     Cr1827   1.944       .  S
O1814     Cr1827   2.040       .  S
O1814      C1815   1.275       .  A
C1815      C1953   1.488       .  S
O1816     Cr1825   2.001       .  S
O1816      C1824   1.261       .  A
O1817     Cr1825   1.963       .  S
O1817      C1818   1.261       .  A
C1818      O1819   1.275       .  A
C1818      C2122   1.483       .  S
O1819     Cr1826   2.036       .  S
O1820     Cr1826   1.952       .  S
O1820      C1821   1.253       .  A
C1821      O1822   1.273       .  A
C1821      C1902   1.492       .  S
O1822     Cr1827   2.048       .  S
O1823     Cr1827   1.986       .  S
O1823      C1824   1.260       .  A
C1824      C2102   1.483       .  S
Cr1825     O1828   1.760       .  S
Cr1826     O1828   1.771       .  S
Cr1827     O1828   1.764       .  S
O1829     Cr1847   1.969       .  S
O1829      C1837   1.264       .  A
O1830     Cr1847   1.991       .  S
C1831      O1832   1.259   1_556  A
C1831      C2002   1.476       .  S
O1832     Cr1848   1.994       .  S
O1833      C1834   1.268       .  A
C1834      O1835   1.253       .  A
C1834      C1913   1.480       .  S
O1835     Cr1849   1.955       .  S
O1836     Cr1849   2.053       .  S
O1836      C1837   1.280       .  A
C1837      C2013   1.501       .  S
O1838     Cr1847   1.999       .  S
O1838      C1846   1.259       .  A
O1839      C1840   1.263       .  A
C1840      O1841   1.275       .  A
C1840      C2613   1.489       .  S
O1841     Cr1848   2.036   1_556  S
O1842      C1843   1.252       .  A
C1843      O1844   1.273       .  A
C1843      C1882   1.501       .  S
O1844     Cr1849   2.049       .  S
O1845     Cr1849   1.993       .  S
O1845      C1846   1.259       .  A
C1846      C2593   1.484       .  S
Cr1847     O1850   1.768       .  S
Cr1849     O1850   1.773       .  S
O1851     Cr1869   1.950       .  S
O1851      C1859   1.260       .  A
O1852     Cr1869   2.002       .  S
O1852      C1853   1.260       .  A
C1853      O1854   1.258       .  A
C1853      C2133   1.480       .  S
O1854     Cr1870   1.989       .  S
O1855     Cr1870   2.039       .  S
O1855      C1856   1.272       .  A
C1856      O1857   1.253       .  A
C1856      C1893   1.486       .  S
O1857     Cr1871   1.951       .  S
O1858     Cr1871   2.056       .  S
O1858      C1859   1.281       .  A
C1859      C2162   1.488       .  S
O1860     Cr1869   1.996       .  S
O1860      C1868   1.258       .  A
O1861     Cr1869   1.949       .  S
O1861      C1862   1.257       .  A
C1862      O1863   1.276       .  A
C1862      C2462   1.472       .  S
O1863     Cr1870   2.039       .  S
O1864     Cr1870   1.954       .  S
O1864      C1865   1.254       .  A
C1865      O1866   1.274       .  A
C1865      C1873   1.499       .  S
O1866     Cr1871   2.050       .  S
O1867     Cr1871   1.996       .  S
O1867      C1868   1.259       .  A
C1868      C2442   1.486       .  S
Cr1869     O1872   1.769       .  S
Cr1870     O1872   1.772       .  S
Cr1871     O1872   1.769       .  S
C1873      C1874   1.420       .  A
C1873      C1878   1.414       .  A
C1874      C1875   1.408       .  A
C1874     Br1886   1.935       .  S
C1875      C1876   1.407       .  A
C1876      C1879   1.500       .  S
C1876      C1877   1.415       .  A
C1877      C1878   1.420       .  A
C1877     Br1885   1.927       .  S
C1878     Br1889   1.927       .  S
C1879      C1880   1.414       .  A
C1879      C1884   1.406       .  A
C1880     Br1891   1.926   1_556  S
C1881      C1882   1.414       .  A
C1881     Br1887   1.927       .  S
C1883      C1884   1.408       .  A
C1883     Br1892   1.937       .  S
C1884     Br1888   1.933       .  S
C1893      C1894   1.416       .  A
C1893      C1898   1.410       .  A
C1894      C1895   1.404       .  A
C1894     Br1906   1.933       .  S
C1895      C1896   1.408       .  A
C1895     Br1910   1.935       .  S
C1896      C1899   1.494       .  S
C1896      C1897   1.414       .  A
C1897      C1898   1.417       .  A
C1897     Br1905   1.926       .  S
C1898     Br1909   1.927       .  S
C1899      C1900   1.414       .  A
C1899      C1904   1.406       .  A
C1900      C1901   1.418       .  A
C1900     Br1911   1.928       .  S
C1901      C1902   1.414       .  A
C1901     Br1907   1.927       .  S
C1902      C1903   1.417       .  A
C1903      C1904   1.404       .  A
C1903     Br1912   1.935       .  S
C1904     Br1908   1.933       .  S
C1913      C1914   1.415       .  A
C1913      C1918   1.409       .  A
C1914      C1915   1.403       .  A
C1914     Br1926   1.932       .  S
C1915      C1916   1.407       .  A
C1915     Br1930   1.934       .  S
C1916      C1919   1.487       .  S
C1916      C1917   1.411       .  A
C1917      C1918   1.412       .  A
C1917     Br1925   1.926       .  S
C1918     Br1929   1.926       .  S
C1919      C1920   1.410       .  A
C1919      C1924   1.403       .  A
C1920      C1921   1.414       .  A
C1920     Br1931   1.929       .  S
C1921      C1922   1.413       .  A
C1921     Br1927   1.923       .  S
C1922      C1923   1.424       .  A
C1923      C1924   1.405       .  A
C1923     Br1932   1.939       .  S
C1924     Br1928   1.934       .  S
C1933      C1934   1.428       .  A
C1933      C1938   1.423       .  A
C1934      C1935   1.408       .  A
C1934     Br1946   1.936       .  S
C1935      C1936   1.404       .  A
C1935     Br1950   1.938       .  S
C1936      C1939   1.485       .  S
C1936      C1937   1.404       .  A
C1937      C1938   1.412       .  A
C1937     Br1945   1.931       .  S
C1938     Br1949   1.927       .  S
C1939      C1940   1.404       .  A
C1939      C1944   1.411       .  A
C1940      C1941   1.401       .  A
C1940     Br1951   1.931       .  S
C1941      C1942   1.412       .  A
C1941     Br1947   1.924       .  S
C1942      C1943   1.413       .  A
C1943      C1944   1.414       .  A
C1943     Br1952   1.922       .  S
C1944     Br1948   1.928       .  S
C1953      C1954   1.414       .  A
C1953      C1958   1.416       .  A
C1954      C1955   1.406       .  A
C1954     Br1966   1.932       .  S
C1955      C1956   1.408       .  A
C1955     Br1970   1.930       .  S
C1956      C1959   1.486       .  S
C1956      C1957   1.407       .  A
C1957      C1958   1.411       .  A
C1957     Br1965   1.931       .  S
C1958     Br1969   1.922       .  S
C1959      C1960   1.409       .  A
C1959      C1964   1.408       .  A
C1960      C1961   1.407       .  A
C1960     Br1971   1.930       .  S
C1961      C1962   1.411       .  A
C1961     Br1967   1.930       .  S
C1962      C1963   1.415       .  A
C1963      C1964   1.410       .  A
C1964     Br1968   1.931       .  S
C1973      C1974   1.412       .  A
C1974     Br1986   1.925       .  S
C1975      C1976   1.412       .  A
C1975     Br1990   1.927       .  S
C1976      C1979   1.492       .  S
C1976      C1977   1.406       .  A
C1977      C1978   1.405       .  A
C1977     Br1985   1.933       .  S
C1978     Br1989   1.935       .  S
C1979      C1980   1.409       .  A
C1979      C1984   1.404       .  A
C1980      C1981   1.417       .  A
C1980     Br1991   1.930       .  S
C1981      C1982   1.420       .  A
C1981     Br1987   1.927       .  S
C1982      C1983   1.425       .  A
C1983      C1984   1.407       .  A
C1983     Br1992   1.936       .  S
C1993      C1994   1.413       .  A
C1993      C1998   1.408       .  A
C1994      C1995   1.404       .  A
C1994     Br2006   1.929       .  S
C1995      C1996   1.406       .  A
C1995     Br2010   1.933       .  S
C1996      C1999   1.484       .  S
C1996      C1997   1.411       .  A
C1997      C1998   1.411       .  A
C1997     Br2005   1.927       .  S
C1998     Br2009   1.928       .  S
C1999      C2000   1.408       .  A
C1999      C2004   1.410       .  A
C2000      C2001   1.402       .  A
C2000     Br2011   1.931       .  S
C2001      C2002   1.411       .  A
C2001     Br2007   1.931       .  S
C2002      C2003   1.411       .  A
C2003      C2004   1.412       .  A
C2004     Br2008   1.927   1_556  S
C2013      C2014   1.417       .  A
C2013      C2018   1.418       .  A
C2014      C2015   1.411       .  A
C2014     Br2026   1.932       .  S
C2015      C2016   1.409       .  A
C2015     Br2030   1.931       .  S
C2016      C2019   1.497       .  S
C2016      C2017   1.409       .  A
C2017      C2018   1.415       .  A
C2017     Br2025   1.930       .  S
C2018     Br2029   1.925       .  S
C2019      C2020   1.412       .  A
C2019      C2024   1.408       .  A
C2020      C2021   1.414       .  A
C2020     Br2031   1.929       .  S
C2021      C2022   1.413       .  A
C2021     Br2027   1.930       .  S
C2022      C2023   1.415       .  A
C2023      C2024   1.410       .  A
C2023     Br2032   1.927       .  S
C2024     Br2028   1.929       .  S
C2033      C2034   1.429       .  A
C2033      C2038   1.421       .  A
C2034      C2035   1.406       .  A
C2034     Br2046   1.930       .  S
C2035      C2036   1.401       .  A
C2035     Br2050   1.937       .  S
C2036      C2039   1.491       .  S
C2036      C2037   1.409       .  A
C2037      C2038   1.417       .  A
C2037     Br2045   1.930       .  S
C2038     Br2049   1.927       .  S
C2039      C2040   1.412       .  A
C2039      C2044   1.409       .  A
C2040      C2041   1.408       .  A
C2040     Br2051   1.931       .  S
C2041      C2042   1.409       .  A
C2041     Br2047   1.930       .  S
C2042      C2043   1.413       .  A
C2043      C2044   1.411       .  A
C2043     Br2052   1.930       .  S
C2044     Br2048   1.929       .  S
C2053      C2054   1.427       .  A
C2053      C2058   1.416       .  A
C2054      C2055   1.411       .  A
C2054     Br2066   1.938       .  S
C2055      C2056   1.406       .  A
C2055     Br2070   1.934       .  S
C2056      C2059   1.500       .  S
C2056      C2057   1.412       .  A
C2057      C2058   1.419       .  A
C2057     Br2065   1.928       .  S
C2058     Br2069   1.926       .  S
C2059      C2060   1.408       .  A
C2059      C2064   1.414       .  A
C2060      C2061   1.408       .  A
C2060     Br2071   1.933       .  S
C2061      C2062   1.418       .  A
C2061     Br2067   1.934       .  S
C2062      C2063   1.414       .  A
C2063      C2064   1.418       .  A
C2063     Br2072   1.927       .  S
C2064     Br2068   1.927       .  S
C2073      C2074   1.420       .  A
C2073      C2078   1.420       .  A
C2074      C2075   1.419       .  A
C2074     Br2086   1.929       .  S
C2075      C2076   1.413       .  A
C2075     Br2090   1.930   1_545  S
C2076      C2079   1.500   1_545  S
C2076      C2077   1.406       .  A
C2077      C2078   1.409       .  A
C2077     Br2085   1.932       .  S
C2078     Br2089   1.927       .  S
C2079      C2080   1.413       .  A
C2079      C2084   1.412       .  A
C2080      C2081   1.413       .  A
C2080     Br2091   1.928       .  S
C2081      C2082   1.410       .  A
C2081     Br2087   1.930       .  S
C2082      C2083   1.412       .  A
C2083      C2084   1.412       .  A
C2083     Br2092   1.928       .  S
C2084     Br2088   1.930   1_565  S
C2093      C2094   1.416       .  A
C2093      C2098   1.416       .  A
C2094      C2095   1.409       .  A
C2094     Br2106   1.925       .  S
C2095      C2096   1.407       .  A
C2095     Br2110   1.931       .  S
C2096      C2099   1.484       .  S
C2096      C2097   1.408       .  A
C2097      C2098   1.406       .  A
C2097     Br2105   1.932       .  S
C2098     Br2109   1.934       .  S
C2099      C2100   1.409       .  A
C2099      C2104   1.406       .  A
C2100      C2101   1.409       .  A
C2100     Br2111   1.931       .  S
C2101      C2102   1.414       .  A
C2101     Br2107   1.932       .  S
C2102      C2103   1.416       .  A
C2103      C2104   1.406       .  A
C2103     Br2112   1.930       .  S
C2104     Br2108   1.931       .  S
C2113      C2114   1.413       .  A
C2113      C2118   1.413       .  A
C2114      C2115   1.406       .  A
C2114     Br2126   1.930       .  S
C2115      C2116   1.409       .  A
C2115     Br2130   1.933       .  S
C2116      C2119   1.492       .  S
C2116      C2117   1.412       .  A
C2117      C2118   1.415       .  A
C2117     Br2125   1.928       .  S
C2118     Br2129   1.929       .  S
C2119      C2120   1.412       .  A
C2119      C2124   1.409       .  A
C2120      C2121   1.413       .  A
C2120     Br2131   1.927       .  S
C2121      C2122   1.409       .  A
C2121     Br2127   1.924       .  S
C2122      C2123   1.413       .  A
C2123      C2124   1.406       .  A
C2123     Br2132   1.930       .  S
C2124     Br2128   1.932       .  S
C2133      C2134   1.411       .  A
C2133      C2138   1.412       .  A
C2134      C2135   1.410       .  A
C2134     Br2146   1.930       .  S
C2135      C2136   1.411       .  A
C2135     Br2150   1.930   1_556  S
C2136      C2137   1.407       .  A
C2137      C2138   1.406       .  A
C2137     Br2145   1.930       .  S
C2138     Br2149   1.924       .  S
C2139      C2144   1.408       .  A
C2140     Br2151   1.930       .  S
C2141      C2142   1.413       .  A
C2142      C2143   1.413       .  A
C2143      C2144   1.405       .  A
C2143     Br2152   1.933       .  S
C2144     Br2148   1.931       .  S
C2153      C2154   1.412       .  A
C2153      C2158   1.411       .  A
C2154      C2155   1.409       .  A
C2154     Br2166   1.927       .  S
C2155      C2156   1.408       .  A
C2155     Br2170   1.929       .  S
C2156      C2159   1.491       .  S
C2156      C2157   1.411       .  A
C2157      C2158   1.411       .  A
C2157     Br2165   1.930       .  S
C2158     Br2169   1.930       .  S
C2159      C2160   1.409       .  A
C2159      C2164   1.408       .  A
C2160      C2161   1.412       .  A
C2160     Br2171   1.928       .  S
C2161      C2162   1.413       .  A
C2161     Br2167   1.924       .  S
C2162      C2163   1.416       .  A
C2163      C2164   1.409       .  A
C2163     Br2172   1.932       .  S
C2164     Br2168   1.931       .  S
C2173      C2174   1.413       .  A
C2173      C2178   1.407       .  A
C2174      C2175   1.409       .  A
C2174     Br2186   1.931       .  S
C2175      C2176   1.409       .  A
C2175     Br2190   1.928       .  S
C2176      C2179   1.487       .  S
C2176      C2177   1.411       .  A
C2177      C2178   1.406       .  A
C2177     Br2185   1.932       .  S
C2178     Br2189   1.926       .  S
C2179      C2180   1.406       .  A
C2179      C2184   1.399       .  A
C2180      C2181   1.414       .  A
C2180     Br2191   1.933       .  S
C2181      C2182   1.422       .  A
C2181     Br2187   1.921       .  S
C2182      C2183   1.431       .  A
C2183      C2184   1.407       .  A
C2183     Br2192   1.930       .  S
C2184     Br2188   1.936       .  S
C2193      C2194   1.413   1_554  A
C2194     Br2206   1.926       .  S
C2195      C2196   1.412       .  A
C2196      C2199   1.491       .  S
C2196      C2197   1.404       .  A
C2197      C2198   1.406       .  A
C2197     Br2205   1.934       .  S
C2198     Br2209   1.937       .  S
C2199      C2200   1.411       .  A
C2199      C2204   1.404       .  A
C2200      C2201   1.416       .  A
C2200     Br2211   1.927       .  S
C2201      C2202   1.415       .  A
C2201     Br2207   1.928       .  S
C2202      C2203   1.424       .  A
C2203      C2204   1.405       .  A
C2203     Br2212   1.933   1_565  S
C2204     Br2208   1.936       .  S
C2213      C2214   1.412       .  A
C2213      C2218   1.416       .  A
C2214      C2215   1.412       .  A
C2214     Br2226   1.927       .  S
C2215      C2216   1.410       .  A
C2215     Br2230   1.929       .  S
C2216      C2219   1.486       .  S
C2216      C2217   1.405       .  A
C2217      C2218   1.405       .  A
C2217     Br2225   1.933       .  S
C2218     Br2229   1.927       .  S
C2219      C2220   1.411       .  A
C2219      C2224   1.411       .  A
C2220      C2221   1.404       .  A
C2220     Br2231   1.932       .  S
C2221      C2222   1.409       .  A
C2221     Br2227   1.932       .  S
C2222      C2223   1.409       .  A
C2223      C2224   1.410       .  A
C2223     Br2232   1.930       .  S
C2224     Br2228   1.927       .  S
C2233      C2234   1.419       .  A
C2233      C2238   1.427   1_556  A
C2234      C2235   1.413       .  A
C2234     Br2246   1.931       .  S
C2235      C2236   1.408       .  A
C2235     Br2250   1.930       .  S
C2236      C2239   1.493       .  S
C2236      C2237   1.404       .  A
C2237      C2238   1.410   1_556  A
C2237     Br2245   1.933       .  S
C2238     Br2249   1.936       .  S
C2239      C2240   1.407       .  A
C2239      C2244   1.404       .  A
C2240      C2241   1.416       .  A
C2240     Br2251   1.931       .  S
C2241      C2242   1.426       .  A
C2241     Br2247   1.935       .  S
C2242      C2243   1.430       .  A
C2243      C2244   1.408       .  A
C2243     Br2252   1.938       .  S
C2244     Br2248   1.937       .  S
C2253      C2254   1.429       .  A
C2253      C2258   1.433       .  A
C2254      C2255   1.418       .  A
C2254     Br2266   1.934       .  S
C2255      C2256   1.406       .  A
C2255     Br2270   1.931       .  S
C2256      C2259   1.498       .  S
C2256      C2257   1.404       .  A
C2257      C2258   1.413       .  A
C2257     Br2265   1.937       .  S
C2258     Br2269   1.940       .  S
C2259      C2260   1.411       .  A
C2259      C2264   1.410       .  A
C2260      C2261   1.412       .  A
C2260     Br2271   1.928       .  S
C2261      C2262   1.413       .  A
C2261     Br2267   1.931       .  S
C2262      C2263   1.416       .  A
C2263      C2264   1.412       .  A
C2263     Br2272   1.932       .  S
C2264     Br2268   1.930       .  S
C2273      C2274   1.422       .  A
C2273      C2278   1.425       .  A
C2274      C2275   1.413       .  A
C2274     Br2286   1.927       .  S
C2275      C2276   1.407       .  A
C2275     Br2290   1.931       .  S
C2276      C2279   1.495       .  S
C2276      C2277   1.407       .  A
C2277      C2278   1.412       .  A
C2277     Br2285   1.935       .  S
C2278     Br2289   1.935       .  S
C2279      C2280   1.410       .  A
C2279      C2284   1.410       .  A
C2280      C2281   1.410       .  A
C2280     Br2291   1.929       .  S
C2281      C2282   1.415       .  A
C2281     Br2287   1.933       .  S
C2282      C2283   1.413       .  A
C2283      C2284   1.413       .  A
C2283     Br2292   1.926       .  S
C2284     Br2288   1.929       .  S
C2293      C2294   1.418       .  A
C2293      C2298   1.417       .  A
C2294      C2295   1.417       .  A
C2294     Br2306   1.926       .  S
C2295      C2296   1.412       .  A
C2295     Br2310   1.929       .  S
C2296      C2299   1.500       .  S
C2296      C2297   1.407       .  A
C2297      C2298   1.411       .  A
C2298     Br2309   1.925       .  S
C2299      C2300   1.410       .  A
C2299      C2304   1.413       .  A
C2300     Br2311   1.932       .  S
C2301      C2302   1.415       .  A
C2301     Br2307   1.929       .  S
C2303      C2304   1.416       .  A
C2303     Br2312   1.929       .  S
C2304     Br2308   1.926       .  S
C2313      C2314   1.419       .  A
C2313      C2318   1.415   1_556  A
C2314      C2315   1.405       .  A
C2314     Br2326   1.935       .  S
C2315      C2316   1.405   1_556  A
C2315     Br2330   1.932       .  S
C2317     Br2325   1.928       .  S
C2318     Br2329   1.931       .  S
C2319      C2320   1.409       .  A
C2319      C2324   1.407       .  A
C2320      C2321   1.410       .  A
C2321      C2322   1.413       .  A
C2321     Br2327   1.931       .  S
C2322      C2323   1.416       .  A
C2323      C2324   1.408       .  A
C2323     Br2332   1.929       .  S
C2324     Br2328   1.931       .  S
C2333      C2334   1.416       .  A
C2333      C2338   1.412       .  A
C2334      C2335   1.403       .  A
C2334     Br2346   1.934       .  S
C2335      C2336   1.407       .  A
C2335     Br2350   1.933       .  S
C2336      C2339   1.486       .  S
C2336      C2337   1.410       .  A
C2337      C2338   1.412       .  A
C2337     Br2345   1.929       .  S
C2338     Br2349   1.923       .  S
C2339      C2340   1.409       .  A
C2339      C2344   1.410       .  A
C2340      C2341   1.404       .  A
C2340     Br2351   1.934       .  S
C2341      C2342   1.413       .  A
C2341     Br2347   1.932       .  S
C2342      C2343   1.413       .  A
C2343      C2344   1.411       .  A
C2343     Br2352   1.928       .  S
C2344     Br2348   1.929       .  S
C2353      C2354   1.414       .  A
C2353      C2358   1.414       .  A
C2354      C2355   1.407       .  A
C2355      C2356   1.406       .  A
C2355     Br2370   1.930       .  S
C2356      C2359   1.490       .  S
C2356      C2357   1.411       .  A
C2357      C2358   1.413       .  A
C2357     Br2365   1.930       .  S
C2358     Br2369   1.930       .  S
C2359      C2360   1.408       .  A
C2359      C2364   1.408       .  A
C2360      C2361   1.411       .  A
C2360     Br2371   1.928       .  S
C2361      C2362   1.416       .  A
C2361     Br2367   1.929       .  S
C2362      C2363   1.419       .  A
C2363      C2364   1.408       .  A
C2363     Br2372   1.935       .  S
C2364     Br2368   1.932       .  S
C2373      C2374   1.414       .  A
C2373      C2378   1.412       .  A
C2374      C2375   1.405       .  A
C2374     Br2386   1.934       .  S
C2375      C2376   1.408       .  A
C2375     Br2390   1.932       .  S
C2376      C2379   1.488       .  S
C2376      C2377   1.411       .  A
C2377      C2378   1.412       .  A
C2377     Br2385   1.929       .  S
C2378     Br2389   1.926       .  S
C2379      C2380   1.408       .  A
C2379      C2384   1.412       .  A
C2380      C2381   1.407       .  A
C2380     Br2391   1.930       .  S
C2381      C2382   1.410       .  A
C2381     Br2387   1.923       .  S
C2382      C2383   1.409       .  A
C2383      C2384   1.409       .  A
C2383     Br2392   1.929       .  S
C2384     Br2388   1.930       .  S
C2393      C2394   1.411       .  A
C2393      C2398   1.412       .  A
C2394      C2395   1.414       .  A
C2394     Br2406   1.924       .  S
C2395      C2396   1.412       .  A
C2395     Br2410   1.930       .  S
C2396      C2399   1.498       .  S
C2396      C2397   1.411       .  A
C2397      C2398   1.412       .  A
C2397     Br2405   1.927       .  S
C2398     Br2409   1.931       .  S
C2399      C2400   1.413       .  A
C2399      C2404   1.407       .  A
C2400      C2401   1.417       .  A
C2400     Br2411   1.929       .  S
C2401      C2402   1.416       .  A
C2401     Br2407   1.927       .  S
C2402      C2403   1.416       .  A
C2403      C2404   1.409       .  A
C2403     Br2412   1.926       .  S
C2404     Br2408   1.929       .  S
C2413      C2414   1.416       .  A
C2413      C2418   1.423       .  A
C2414      C2415   1.422       .  A
C2414     Br2426   1.927       .  S
C2415      C2416   1.415       .  A
C2415     Br2430   1.928   1_545  S
C2416      C2419   1.506   1_545  S
C2416      C2417   1.406       .  A
C2417      C2418   1.410       .  A
C2417     Br2425   1.935       .  S
C2418     Br2429   1.923       .  S
C2419      C2420   1.416       .  A
C2419      C2424   1.412       .  A
C2420      C2421   1.414       .  A
C2420     Br2431   1.931   1_565  S
C2421      C2422   1.411       .  A
C2421     Br2427   1.927       .  S
C2422      C2423   1.414       .  A
C2423      C2424   1.415       .  A
C2423     Br2432   1.929       .  S
C2424     Br2428   1.929       .  S
C2433      C2434   1.419       .  A
C2433      C2438   1.417       .  A
C2434      C2435   1.410       .  A
C2434     Br2446   1.922       .  S
C2435      C2436   1.406       .  A
C2435     Br2450   1.933       .  S
C2436      C2439   1.489       .  S
C2436      C2437   1.408       .  A
C2437      C2438   1.410       .  A
C2437     Br2445   1.932       .  S
C2438     Br2449   1.932       .  S
C2439      C2440   1.411       .  A
C2439      C2444   1.407       .  A
C2440      C2441   1.410       .  A
C2440     Br2451   1.931       .  S
C2441      C2442   1.414       .  A
C2441     Br2447   1.931       .  S
C2442      C2443   1.417       .  A
C2443      C2444   1.408       .  A
C2443     Br2452   1.931       .  S
C2444     Br2448   1.931       .  S
C2453      C2454   1.411       .  A
C2453      C2458   1.413       .  A
C2454      C2455   1.410       .  A
C2454     Br2466   1.929       .  S
C2455      C2456   1.409       .  A
C2455     Br2470   1.927       .  S
C2456      C2457   1.408       .  A
C2457      C2458   1.405       .  A
C2458     Br2469   1.932       .  S
C2459      C2460   1.407   1_554  A
C2460      C2461   1.404       .  A
C2460     Br2471   1.932       .  S
C2461      C2462   1.412       .  A
C2461     Br2467   1.929       .  S
C2462      C2463   1.408       .  A
C2464     Br2468   1.927       .  S
C2473      C2474   1.409       .  A
C2473      C2478   1.412       .  A
C2474      C2475   1.410       .  A
C2475      C2476   1.412       .  A
C2476      C2477   1.409       .  A
C2477      C2478   1.411       .  A
C2477     Br2485   1.930       .  S
C2478     Br2489   1.924       .  S
C2479      C2480   1.409       .  A
C2479      C2484   1.409       .  A
C2480      C2481   1.412       .  A
C2481      C2482   1.414       .  A
C2481     Br2487   1.926       .  S
C2482      C2483   1.415       .  A
C2483      C2484   1.409       .  A
C2483     Br2492   1.932       .  S
C2484     Br2488   1.930       .  S
C2493      C2494   1.412       .  A
C2493      C2498   1.415       .  A
C2494      C2495   1.409       .  A
C2494     Br2506   1.931       .  S
C2495      C2496   1.410       .  A
C2495     Br2510   1.929       .  S
C2496      C2499   1.489       .  S
C2496      C2497   1.407       .  A
C2497      C2498   1.410       .  A
C2497     Br2505   1.930       .  S
C2498     Br2509   1.925       .  S
C2499      C2500   1.406       .  A
C2499      C2504   1.411       .  A
C2500      C2501   1.404       .  A
C2500     Br2511   1.932       .  S
C2501      C2502   1.418       .  A
C2501     Br2507   1.937       .  S
C2502      C2503   1.414       .  A
C2503      C2504   1.415       .  A
C2503     Br2512   1.928       .  S
C2504     Br2508   1.927       .  S
C2513      C2518   1.417   1_554  A
C2514      C2515   1.412       .  A
C2514     Br2526   1.926       .  S
C2515      C2516   1.406       .  A
C2515     Br2530   1.931       .  S
C2516      C2519   1.499       .  S
C2517      C2518   1.417   1_554  A
C2517     Br2525   1.929   1_554  S
C2518     Br2529   1.930       .  S
C2519      C2520   1.413       .  A
C2519      C2524   1.412       .  A
C2520      C2521   1.412       .  A
C2520     Br2531   1.930       .  S
C2521      C2522   1.410       .  A
C2521     Br2527   1.929       .  S
C2522      C2523   1.411       .  A
C2523      C2524   1.413       .  A
C2523     Br2532   1.931       .  S
C2524     Br2528   1.926       .  S
C2533      C2534   1.410       .  A
C2533      C2538   1.414       .  A
C2534      C2535   1.413       .  A
C2534     Br2546   1.929       .  S
C2535      C2536   1.412       .  A
C2535     Br2550   1.927       .  S
C2536      C2539   1.486       .  S
C2536      C2537   1.407       .  A
C2537      C2538   1.402       .  A
C2537     Br2545   1.933       .  S
C2538     Br2549   1.933       .  S
C2539      C2540   1.408       .  A
C2539      C2544   1.407       .  A
C2540      C2541   1.411       .  A
C2540     Br2551   1.929       .  S
C2541      C2542   1.415       .  A
C2541     Br2547   1.929       .  S
C2542      C2543   1.419       .  A
C2543      C2544   1.407       .  A
C2543     Br2552   1.932       .  S
C2544     Br2548   1.934       .  S
C2553      C2554   1.419       .  A
C2553      C2558   1.418       .  A
C2554      C2555   1.404       .  A
C2554     Br2566   1.936       .  S
C2555      C2556   1.405       .  A
C2555     Br2570   1.933       .  S
C2556      C2559   1.488       .  S
C2556      C2557   1.410       .  A
C2557      C2558   1.415       .  A
C2557     Br2565   1.928       .  S
C2558     Br2569   1.930       .  S
C2559      C2560   1.410       .  A
C2559      C2564   1.408       .  A
C2560      C2561   1.409       .  A
C2560     Br2571   1.930       .  S
C2561      C2562   1.412       .  A
C2561     Br2567   1.932       .  S
C2562      C2563   1.413       .  A
C2563      C2564   1.408       .  A
C2563     Br2572   1.930       .  S
C2564     Br2568   1.929       .  S
C2573      C2574   1.418       .  A
C2573      C2578   1.413       .  A
C2574      C2575   1.409       .  A
C2574     Br2586   1.933       .  S
C2575      C2576   1.408       .  A
C2575     Br2590   1.933       .  S
C2576      C2579   1.500       .  S
C2576      C2577   1.413       .  A
C2577      C2578   1.418       .  A
C2577     Br2585   1.927       .  S
C2578     Br2589   1.927       .  S
C2579      C2580   1.407       .  A
C2579      C2584   1.413       .  A
C2580      C2581   1.408       .  A
C2580     Br2591   1.933       .  S
C2581      C2582   1.422       .  A
C2581     Br2587   1.936       .  S
C2582      C2583   1.416       .  A
C2583      C2584   1.419       .  A
C2583     Br2592   1.928       .  S
C2584     Br2588   1.928       .  S
C2593      C2594   1.416       .  A
C2593      C2598   1.412       .  A
C2594      C2595   1.407       .  A
C2594     Br2606   1.924       .  S
C2595      C2596   1.405       .  A
C2595     Br2610   1.931       .  S
C2596      C2599   1.484       .  S
C2596      C2597   1.410       .  A
C2597      C2598   1.409       .  A
C2597     Br2605   1.932       .  S
C2598     Br2609   1.930       .  S
C2599      C2600   1.408       .  A
C2599      C2604   1.407       .  A
C2600      C2601   1.404       .  A
C2600     Br2611   1.931       .  S
C2601      C2602   1.414       .  A
C2601     Br2607   1.934       .  S
C2602      C2603   1.415       .  A
C2603      C2604   1.410       .  A
C2603     Br2612   1.926       .  S
C2604     Br2608   1.930       .  S
C2613      C2614   1.412       .  A
C2613      C2618   1.417       .  A
C2614      C2615   1.407       .  A
C2614     Br2626   1.931       .  S
C2615      C2616   1.409       .  A
C2615     Br2630   1.930       .  S
C2616      C2619   1.488       .  S
C2616      C2617   1.407       .  A
C2617      C2618   1.412       .  A
C2617     Br2625   1.931       .  S
C2618     Br2629   1.922       .  S
C2619      C2620   1.410       .  A
C2619      C2624   1.407       .  A
C2620      C2621   1.410       .  A
C2620     Br2631   1.931       .  S
C2621      C2622   1.412       .  A
C2621     Br2627   1.930       .  S
C2622      C2623   1.413       .  A
C2623      C2624   1.408       .  A
C2623     Br2632   1.924       .  S
C2624     Br2628   1.930       .  S
C2633      C2634   1.409       .  A
C2633      C2638   1.411       .  A
C2634      C2635   1.409       .  A
C2634     Br2646   1.916       .  S
C2635      C2636   1.408       .  A
C2635     Br2650   1.929       .  S
C2636      C2639   1.482   1_655  S
C2636      C2637   1.407       .  A
C2637      C2638   1.405       .  A
C2637     Br2645   1.933       .  S
C2638     Br2649   1.927       .  S
C2639      C2640   1.407       .  A
C2639      C2644   1.401       .  A
C2640      C2641   1.412       .  A
C2640     Br2651   1.931   1_455  S
C2641      C2642   1.420       .  A
C2641     Br2647   1.932       .  S
C2642      C2643   1.432       .  A
C2643      C2644   1.405       .  A
C2643     Br2652   1.943       .  S
C2644     Br2648   1.938       .  S
C2653      C2654   1.410       .  A
C2653      C2658   1.411       .  A
C2654      C2655   1.406       .  A
C2655      C2656   1.407       .  A
C2655     Br2670   1.929       .  S
C2656      C2659   1.480       .  S
C2656      C2657   1.406       .  A
C2657      C2658   1.407       .  A
C2657     Br2665   1.932       .  S
C2658     Br2669   1.919       .  S
C2659      C2660   1.410       .  A
C2659      C2664   1.406       .  A
C2660      C2661   1.406       .  A
C2660     Br2671   1.931       .  S
C2661      C2662   1.408       .  A
C2661     Br2667   1.929       .  S
C2662      C2663   1.412       .  A
C2663      C2664   1.407       .  A
C2663     Br2672   1.922       .  S
C2664     Br2668   1.930       .  S
C2673      C2674   1.413       .  A
C2673      C2678   1.415       .  A
C2674      C2675   1.411       .  A
C2674     Br2686   1.930       .  S
C2675      C2676   1.410       .  A
C2675     Br2690   1.930       .  S
C2676      C2679   1.493       .  S
C2676      C2677   1.409       .  A
C2677      C2678   1.411       .  A
C2677     Br2685   1.930       .  S
C2678     Br2689   1.930       .  S
C2679      C2680   1.410       .  A
C2679      C2684   1.407       .  A
C2680      C2681   1.416       .  A
C2680     Br2691   1.929       .  S
C2681      C2682   1.418       .  A
C2681     Br2687   1.929       .  S
C2682      C2683   1.418       .  A
C2683      C2684   1.407       .  A
C2683     Br2692   1.934       .  S
C2684     Br2688   1.933       .  S
C2693      C2694   1.415       .  A
C2693      C2698   1.411       .  A
C2694      C2695   1.408       .  A
C2694     Br2706   1.927       .  S
C2695      C2696   1.409       .  A
C2695     Br2710   1.932       .  S
C2696      C2699   1.490       .  S
C2696      C2697   1.408       .  A
C2697      C2698   1.411       .  A
C2697     Br2705   1.928       .  S
C2698     Br2709   1.919       .  S
C2699      C2700   1.412       .  A
C2699      C2704   1.406       .  A
C2700      C2701   1.414       .  A
C2700     Br2711   1.928       .  S
C2701      C2702   1.410       .  A
C2701     Br2707   1.927       .  S
C2702      C2703   1.415       .  A
C2703      C2704   1.406       .  A
C2703     Br2712   1.929       .  S
C2704     Br2708   1.932       .  S
C2713      C2714   1.412       .  A
C2713      C2718   1.418   1_556  A
C2714      C2715   1.414       .  A
C2714     Br2726   1.929       .  S
C2715      C2716   1.412       .  A
C2715     Br2730   1.930       .  S
C2716      C2719   1.502       .  S
C2716      C2717   1.410       .  A
C2717      C2718   1.416   1_556  A
C2717     Br2725   1.929   1_556  S
C2719      C2720   1.411       .  A
C2719      C2724   1.410       .  A
C2720      C2721   1.417       .  A
C2720     Br2731   1.927       .  S
C2721      C2722   1.416       .  A
C2721     Br2727   1.926       .  S
C2722      C2723   1.417       .  A
C2723      C2724   1.411       .  A
C2723     Br2732   1.934       .  S
C2724     Br2728   1.930       .  S
C2733      C2734   1.422       .  A
C2734     Br2746   1.930       .  S
C2735      C2736   1.413       .  A
C2736      C2739   1.505       .  S
C2736      C2737   1.405       .  A
C2737      C2738   1.411       .  A
C2737     Br2745   1.935       .  S
C2738     Br2749   1.933       .  S
C2739      C2740   1.407       .  A
C2739      C2744   1.415       .  A
C2740      C2741   1.411       .  A
C2741      C2742   1.424       .  A
C2741     Br2747   1.937       .  S
C2742      C2743   1.417       .  A
C2743      C2744   1.422       .  A
C2743     Br2752   1.928       .  S
C2744     Br2748   1.927       .  S
C2753      C2754   1.422       .  A
C2753      C2758   1.419       .  A
C2754      C2755   1.404       .  A
C2754     Br2766   1.933       .  S
C2755      C2756   1.406       .  A
C2755     Br2770   1.938       .  S
C2756      C2759   1.482       .  S
C2756      C2757   1.405       .  A
C2757      C2758   1.410       .  A
C2757     Br2765   1.929       .  S
C2758     Br2769   1.929       .  S
C2759      C2760   1.409       .  A
C2759      C2764   1.402       .  A
C2760      C2761   1.412       .  A
C2760     Br2771   1.929       .  S
C2761      C2762   1.413       .  A
C2761     Br2767   1.922       .  S
C2762      C2763   1.420       .  A
C2763      C2764   1.403       .  A
C2763     Br2772   1.924       .  S
C2764     Br2768   1.935       .  S
C2773      C2774   1.414       .  A
C2773      C2778   1.417       .  A
C2774      C2775   1.412       .  A
C2774     Br2786   1.927       .  S
C2775      C2776   1.409       .  A
C2776      C2777   1.406       .  A
C2777      C2778   1.404       .  A
C2777     Br2785   1.933       .  S
C2778     Br2789   1.935       .  S
C2779      C2780   1.409       .  A
C2779      C2784   1.407       .  A
C2780      C2781   1.409       .  A
C2781      C2782   1.412       .  A
C2781     Br2787   1.931       .  S
C2782      C2783   1.417       .  A
C2783      C2784   1.409       .  A
C2783     Br2792   1.931       .  S
C2784     Br2788   1.931       .  S
C2793      C2794   1.416       .  A
C2793      C2798   1.415       .  A
C2794      C2795   1.410       .  A
C2794     Br2806   1.931       .  S
C2795      C2796   1.408       .  A
C2796      C2797   1.406       .  A
C2797      C2798   1.407       .  A
C2797     Br2805   1.931       .  S
C2798     Br2809   1.930       .  S
C2799      C2804   1.406       .  A
C2800     Br2811   1.934       .  S
C2801      C2802   1.422       .  A
C2801     Br2807   1.937       .  S
C2802      C2803   1.420       .  A
C2803      C2804   1.410   1_556  A
C2803     Br2812   1.929       .  S
C2804     Br2808   1.931       .  S
C2813      C2814   1.410       .  A
C2813      C2818   1.413       .  A
C2814      C2815   1.413       .  A
C2814     Br2826   1.929       .  S
C2815      C2816   1.411       .  A
C2815     Br2830   1.927       .  S
C2816      C2819   1.486       .  S
C2816      C2817   1.407       .  A
C2817      C2818   1.403       .  A
C2817     Br2825   1.931       .  S
C2818     Br2829   1.935       .  S
C2819      C2820   1.408       .  A
C2819      C2824   1.406       .  A
C2820      C2821   1.414       .  A
C2820     Br2831   1.928       .  S
C2821      C2822   1.417       .  A
C2821     Br2827   1.930       .  S
C2822      C2823   1.416       .  A
C2823      C2824   1.405       .  A
C2823     Br2832   1.927       .  S
C2824     Br2828   1.936       .  S
C2833      C2834   1.421       .  A
C2833      C2838   1.430       .  A
C2834      C2835   1.418       .  A
C2834     Br2846   1.927       .  S
C2835      C2836   1.410       .  A
C2835     Br2850   1.930   1_655  S
C2836      C2839   1.499   1_655  S
C2836      C2837   1.404       .  A
C2837      C2838   1.411       .  A
C2837     Br2845   1.935       .  S
C2838     Br2849   1.937       .  S
C2839      C2840   1.408       .  A
C2839      C2844   1.411       .  A
C2840      C2841   1.410       .  A
C2840     Br2851   1.932       .  S
C2841      C2842   1.421       .  A
C2841     Br2847   1.937       .  S
C2842      C2843   1.417       .  A
C2843      C2844   1.417       .  A
C2843     Br2852   1.928       .  S
C2844     Br2848   1.929       .  S
C2853      C2854   1.412       .  A
C2853      C2858   1.417       .  A
C2854      C2855   1.418       .  A
C2854     Br2866   1.926       .  S
C2855      C2856   1.415       .  A
C2855     Br2870   1.926       .  S
C2856      C2859   1.496       .  S
C2856      C2857   1.408       .  A
C2857      C2858   1.405       .  A
C2857     Br2865   1.934       .  S
C2858     Br2869   1.935       .  S
C2859      C2860   1.401       .  A
C2859      C2864   1.412       .  A
C2860      C2861   1.407       .  A
C2860     Br2871   1.938       .  S
C2861      C2862   1.431       .  A
C2861     Br2867   1.934       .  S
C2862      C2863   1.420       .  A
C2863      C2864   1.420       .  A
C2863     Br2872   1.928       .  S
C2864     Br2868   1.928       .  S
C2873      C2874   1.413       .  A
C2873      C2878   1.415       .  A
C2874      C2875   1.411       .  A
C2874     Br2886   1.926       .  S
C2875      C2876   1.409       .  A
C2875     Br2890   1.929       .  S
C2876      C2879   1.485       .  S
C2876      C2877   1.405       .  A
C2877      C2878   1.405       .  A
C2877     Br2885   1.935       .  S
C2878     Br2889   1.920       .  S
C2879      C2880   1.406       .  A
C2879      C2884   1.408       .  A
C2880      C2881   1.404       .  A
C2880     Br2891   1.936       .  S
C2881      C2882   1.419       .  A
C2881     Br2887   1.929       .  S
C2882      C2883   1.415       .  A
C2883      C2884   1.412       .  A
C2883     Br2892   1.926       .  S
C2884     Br2888   1.929       .  S
C2893      C2894   1.419       .  A
C2893      C2898   1.421       .  A
C2894      C2895   1.414       .  A
C2894     Br2906   1.928       .  S
C2895      C2896   1.408       .  A
C2895     Br2910   1.930       .  S
C2896      C2899   1.491       .  S
C2896      C2897   1.407       .  A
C2897      C2898   1.410       .  A
C2897     Br2905   1.935       .  S
C2898     Br2909   1.932       .  S
C2899      C2900   1.412       .  A
C2899      C2904   1.407       .  A
C2900      C2901   1.413       .  A
C2900     Br2911   1.927       .  S
C2901      C2902   1.411       .  A
C2902      C2903   1.412       .  A
C2903      C2904   1.407       .  A
C2903     Br2912   1.920       .  S
C2904     Br2908   1.932       .  S
C2913      C2914   1.414       .  A
C2913      C2918   1.415       .  A
C2914      C2915   1.411       .  A
C2914     Br2926   1.930       .  S
C2915      C2916   1.410       .  A
C2915     Br2930   1.931       .  S
C2916      C2919   1.488       .  S
C2916      C2917   1.407       .  A
C2917      C2918   1.407       .  A
C2917     Br2925   1.932       .  S
C2918     Br2929   1.931       .  S
C2919      C2920   1.404       .  A
C2919      C2924   1.405       .  A
C2920      C2921   1.406       .  A
C2920     Br2931   1.936       .  S
C2921      C2922   1.428       .  A
C2921     Br2927   1.940       .  S
C2922      C2923   1.428       .  A
C2923      C2924   1.414       .  A
C2923     Br2932   1.934       .  S
C2924     Br2928   1.932       .  S
C2933      C2934   1.422       .  A
C2933      C2938   1.423       .  A
C2934      C2935   1.415       .  A
C2934     Br2946   1.934       .  S
C2935      C2936   1.409       .  A
C2935     Br2950   1.931       .  S
C2936      C2939   1.496       .  S
C2936      C2937   1.409       .  A
C2937      C2938   1.410       .  A
C2937     Br2945   1.937       .  S
C2938     Br2949   1.935       .  S
C2939      C2940   1.412       .  A
C2939      C2944   1.411       .  A
C2940      C2941   1.412       .  A
C2940     Br2951   1.929       .  S
C2941      C2942   1.411       .  A
C2941     Br2947   1.929       .  S
C2942      C2943   1.412       .  A
C2943      C2944   1.409       .  A
C2943     Br2952   1.926       .  S
C2944     Br2948   1.931       .  S
