geometry optimzed in LAMMPS
_audit_creation_date              2020-11-30 
_audit_creation_method            'lammps2cif' 
_symmetry_space_group_name_H-M    'P1' 
_symmetry_Int_Tables_number       1 
_symmetry_cell_setting            triclinic 
loop_ 
_symmetry_equiv_pos_as_xyz 
  x,y,z 
_cell_length_a                    62.6375779 
_cell_length_b                    62.93474213085596 
_cell_length_c                    39.486461977815004 
_cell_angle_alpha                 90.08112932772046 
_cell_angle_beta                  89.88579737595231 
_cell_angle_gamma                 120.24580503705889 
loop_ 
_atom_site_label 
_atom_site_type_symbol 
_atom_site_fract_x 
_atom_site_fract_y 
_atom_site_fract_z 
_atom_site_charge 
O1          O  0.09125043  0.44784108  0.17630344    -0.80500
C2          C  0.17444834  0.46306097  0.25001149     0.98800
O3          O  0.16198200  0.44524648  0.22993046    -0.69700
O4          O  0.11498610  0.42103866  0.24021978    -0.73200
Al5        Al  0.13366318  0.43639888  0.20163245     1.49000
C6          C  0.09649026  0.42069812  0.25296320     0.94100
O7          O  0.11713418  0.48399991  0.25745534    -0.79500
O8          O  0.15411276  0.50441337  0.17102044    -0.73000
Al9        Al  0.10623580  0.46533436  0.21614524     1.90100
O10         O  0.15357163  0.51093038  0.23893079    -0.72100
O11         O  0.18100709  0.48298983  0.18089515    -0.71900
O12         O  0.17379294  0.48284085  0.24818261    -0.77600
O13         O  0.15308448  0.44751177  0.16133151    -0.75800
O14         O  0.13410261  0.46462136  0.20928536    -1.11900
O15         O  0.10476371  0.42191420  0.17254013    -0.71100
C16         C  0.09044668  0.42939179  0.16278280     0.99600
C17         C  0.13588257  0.50526479  0.25905435     0.96000
Al18       Al  0.16302438  0.49281413  0.20971999     1.55600
O19         O  0.09007420  0.43592309  0.24381734    -0.75800
C20         C  0.17490544  0.46535918  0.16078308     1.00100
C21         C  0.13458135  0.50560917  0.16848242     0.95000
O22         O  0.11675557  0.49422341  0.18903063    -0.81100
O23         O  0.99637606  0.18963131  0.44552816    -0.80500
C24         C  0.02481244  0.19827523  0.31337961     0.98800
O25         O  0.02644382  0.18836275  0.34024318    -0.69700
O26         O  0.03044140  0.18474625  0.40523496    -0.73200
Al27       Al  0.00315171  0.17420598  0.37492912     1.49000
C28         C  0.04667258  0.20577457  0.41528600     0.94100
O29         O  0.02291617  0.25051144  0.39468875    -0.79500
O30         O  0.96844040  0.21870746  0.36973141    -0.73000
Al31       Al  0.00933708  0.21836526  0.41607105     1.90100
O32         O  0.01495280  0.24173838  0.34094297    -0.72100
O33         O  0.95926039  0.17800028  0.33907091    -0.71900
O34         O  0.00705461  0.20239218  0.30908211    -0.77600
O35         O  0.97682685  0.15597377  0.34359969    -0.75800
O36         O  0.00030580  0.20091383  0.37783530    -1.11900
O37         O  0.97991865  0.15860960  0.40986559    -0.71100
C38         C  0.98099364  0.16712537  0.43918482     0.99600
C39         C  0.02521811  0.25732262  0.36406146     0.96000
Al40       Al  0.98837947  0.20941532  0.34268003     1.55600
O41         O  0.04208804  0.22313618  0.41532011    -0.75800
C42         C  0.95835881  0.15773132  0.33552940     1.00100
C43         C  0.96477594  0.21834835  0.40137075     0.95000
O44         O  0.97850731  0.21573164  0.42199809    -0.81100
O45         O  0.87465805  0.34370516  0.10778080    -0.80500
C46         C  0.83865277  0.31285389  0.47143648     0.98800
O47         O  0.83159532  0.32095096  0.99544772    -0.69700
O48         O  0.81760951  0.29994861  0.05395544    -0.73200
Al49       Al  0.84017704  0.33293058  0.04035441     1.49000
C50         C  0.81911576  0.28804209  0.07843066     0.94100
O51         O  0.87276593  0.29092135  0.05546804    -0.79500
O52         O  0.91659229  0.36070506  0.03233645    -0.73000
Al53       Al  0.87330367  0.31786571  0.07983924     1.90100
O54         O  0.89488388  0.31279391  0.01204825    -0.72100
O55         O  0.88324674  0.36675028  0.48828185    -0.71900
O56         O  0.86058269  0.31727551  0.47384953    -0.77600
O57         O  0.85757831  0.36623314  0.02596636    -0.75800
O58         O  0.86709810  0.32984795  0.04233545    -1.11900
O59         O  0.84368431  0.34554460  0.08507670    -0.71100
C60         C  0.85978652  0.35183805  0.10801558     0.99600
C61         C  0.88499920  0.29313722  0.02878437     0.96000
Al62       Al  0.88772014  0.33830854  0.00671179     1.55600
O63         O  0.83974143  0.29542872  0.09237144    -0.75800
C64         C  0.87181261  0.37708595  0.49931215     1.00100
C65         C  0.92368151  0.35483027  0.05895004     0.95000
O66         O  0.90837373  0.33704763  0.07682998    -0.81100
O67         O  0.88810452  0.57044347  0.25118179    -0.80500
C68         C  0.85629923  0.49997405  0.35418010     0.98800
O69         O  0.86259545  0.52238631  0.36003295    -0.69700
O70         O  0.90436674  0.55326270  0.33290637    -0.73200
Al71       Al  0.87357111  0.55035352  0.32844628     1.49000
C72         C  0.92049592  0.55523893  0.31235501     0.94100
O73         O  0.88509169  0.50936257  0.25366375    -0.79500
O74         O  0.82481648  0.51431707  0.25703495    -0.73000
Al75       Al  0.88505780  0.53958381  0.25549751     1.90100
O76         O  0.84553665  0.48533019  0.25978528    -0.72100
O77         O  0.81889931  0.51155453  0.32315639    -0.71900
O78         O  0.84750099  0.49040466  0.32576349    -0.77600
O79         O  0.84337852  0.55068253  0.32987419    -0.75800
O80         O  0.86543470  0.53124495  0.29181893    -1.11900
O81         O  0.88676934  0.58133393  0.30351122    -0.71100
C82         C  0.88996965  0.58624533  0.27210361     0.99600
C83         C  0.86617744  0.48852307  0.25033574     0.96000
Al84       Al  0.83674270  0.50293515  0.29148053     1.55600
O85         O  0.91592533  0.55238123  0.28085702    -0.75800
C86         C  0.82223349  0.53211404  0.33267832     1.00100
C87         C  0.83501246  0.52285491  0.22878713     0.95000
O88         O  0.85753117  0.52895629  0.22367005    -0.81100
O89         O  0.11563564  0.69279704  0.49281810    -0.80500
C90         C  0.14821026  0.64454941  0.40476552     0.98800
O91         O  0.14263208  0.66045515  0.39484751    -0.69700
O92         O  0.09974994  0.65177518  0.41542812    -0.73200
Al93       Al  0.13090824  0.67965851  0.42027562     1.49000
C94         C  0.08194740  0.64107556  0.43552967     0.94100
O95         O  0.11233309  0.63002658  0.00470536    -0.79500
O96         O  0.17484892  0.69390448  0.50096476    -0.73000
Al97       Al  0.11468865  0.66294622  0.49480075     1.90100
O98         O  0.15031657  0.64367948  0.50069172    -0.72100
O99         O  0.18457583  0.69451187  0.43604077    -0.71900
O100        O  0.15450388  0.64458048  0.43506180    -0.77600
O101        O  0.16190859  0.70941401  0.41870810    -0.75800
O102        O  0.13625435  0.67065814  0.46079006    -1.11900
O103        O  0.11753620  0.69980159  0.43817209    -0.71100
C104        C  0.11469369  0.70493740  0.46839855     0.99600
C105        C  0.12989300  0.62636695  0.01075832     0.96000
Al106      Al  0.16366455  0.66932265  0.46757471     1.55600
O107        O  0.08495511  0.64614039  0.46687023    -0.75800
C108        C  0.18278704  0.71130572  0.42135733     1.00100
C109        C  0.16548960  0.69287727  0.02735565     0.95000
O110        O  0.14257160  0.67754346  0.03168981    -0.81100
O111        O  0.98685509  0.76169421  0.16427136    -0.80500
C112        C  0.01905601  0.82935495  0.06014011     0.98800
O113        O  0.00184006  0.80704534  0.05538279    -0.69700
O114        O  0.01122586  0.77486145  0.08055187    -0.73200
Al115      Al  0.98500240  0.77997800  0.08844187     1.49000
C116        C  0.02869262  0.77591566  0.09720433     0.94100
O117        O  0.04355600  0.82469173  0.15598446    -0.79500
O118        O  0.97695196  0.81691140  0.16145253    -0.73000
Al119      Al  0.01360699  0.79346515  0.15723915     1.90100
O120        O  0.02621343  0.84689172  0.15379232    -0.72100
O121        O  0.97130603  0.81995499  0.09573731    -0.71900
O122        O  0.02062006  0.84025112  0.08783330    -0.77600
O123        O  0.95501850  0.78073221  0.09029018    -0.75800
O124        O  0.99913934  0.80024352  0.12340105    -1.11900
O125        O  0.96739235  0.75051010  0.11567970    -0.71100
C126        C  0.96950846  0.74603547  0.14635646     0.99600
C127        C  0.04492980  0.84513800  0.15976511     0.96000
Al128      Al  0.99878977  0.82840641  0.12456273     1.55600
O129        O  0.03125027  0.78196845  0.12825576    -0.75800
C130        C  0.95297180  0.79946823  0.08861799     1.00100
C131        C  0.97985219  0.80804382  0.18869768     0.95000
O132        O  0.99736831  0.80326537  0.19188885    -0.81100
O133        O  0.33618547  0.85947555  0.28118058    -0.80500
C134        C  0.35515078  0.85664824  0.14504183     0.98800
O135        O  0.35893801  0.84924383  0.17277164    -0.69700
O136        O  0.36727763  0.84925166  0.23744337    -0.73200
Al137      Al  0.33824511  0.83920056  0.21068411     1.49000
C138        C  0.38470502  0.87006431  0.24625664     0.94100
O139        O  0.36649802  0.91776311  0.22389431    -0.79500
O140        O  0.31105053  0.89100554  0.20438169    -0.73000
Al141      Al  0.35044327  0.88679828  0.24876965     1.90100
O142        O  0.35561803  0.90634503  0.17130763    -0.72100
O143        O  0.29503302  0.84663412  0.17836074    -0.71900
O144        O  0.33954420  0.86384353  0.14301169    -0.77600
O145        O  0.30921659  0.82149134  0.18331147    -0.75800
O146        O  0.33828211  0.86754402  0.21232380    -1.11900
O147        O  0.31754190  0.82683567  0.24844654    -0.71100
C148        C  0.32067635  0.83668315  0.27719095     0.99600
C149        C  0.36903452  0.92249151  0.19245479     0.96000
Al150      Al  0.32629195  0.87623523  0.17735975     1.55600
O151        O  0.38141973  0.88818090  0.24646844    -0.75800
C152        C  0.29193859  0.82531177  0.17544974     1.00100
C153        C  0.30883654  0.89251580  0.23607384     0.95000
O154        O  0.32172873  0.88827299  0.25618420    -0.81100
O155        O  0.19372707  0.00424597  0.44211145    -0.80500
C156        C  0.16689159  0.97923517  0.30887742     0.98800
O157        O  0.15674520  0.97649433  0.33741509    -0.69700
O158        O  0.15104011  0.97162258  0.40304309    -0.73200
Al159      Al  0.16847873  0.99899510  0.37339284     1.49000
C160        C  0.15483700  0.95458329  0.41165271     0.94100
O161        O  0.22106324  0.97352036  0.38440051    -0.79500
O162        O  0.24786267  0.02873090  0.36171290    -0.73000
Al163      Al  0.20617805  0.98943677  0.40968211     1.90100
O164        O  0.21909499  0.98321831  0.33163262    -0.72100
O165        O  0.21720233  0.04196691  0.33710438    -0.71900
O166        O  0.18945901  0.99573187  0.30457344    -0.77600
O167        O  0.17759216  0.02604189  0.34378218    -0.75800
O168        O  0.19737824  0.99995354  0.37334373    -1.11900
O169        O  0.17834734  0.02146975  0.40933766    -0.71100
C170        C  0.18651722  0.01971084  0.43774798     0.99600
C171        C  0.22312152  0.97088849  0.35291976     0.96000
Al172      Al  0.21680850  0.01148392  0.33688055     1.55600
O173        O  0.17644760  0.95800482  0.41013925    -0.75800
C174        C  0.19826037  0.04402089  0.33575656     1.00100
C175        C  0.25270750  0.03181000  0.39309713     0.95000
O176        O  0.23650183  0.01877107  0.41449566    -0.81100
O177        O  0.46211862  0.13661739  0.47619711    -0.80500
C178        C  0.49069505  0.14397497  0.11238860     0.98800
O179        O  0.50141933  0.16127333  0.09102269    -0.69700
O180        O  0.51692951  0.15211080  0.03492614    -0.73200
Al181      Al  0.49552114  0.16445648  0.04417230     1.49000
C182        C  0.51371452  0.13470610  0.51115318     0.94100
O183        O  0.45847180  0.08880420  0.03947523    -0.79500
O184        O  0.42052008  0.12468284  0.04472394    -0.73000
Al185      Al  0.46135687  0.11434621  0.00897096     1.90100
O186        O  0.43257676  0.09221505  0.07312630    -0.72100
O187        O  0.45196985  0.15847478  0.08850936    -0.71900
O188        O  0.46814556  0.12766919  0.10869093    -0.77600
O189        O  0.48004774  0.18317830  0.05338528    -0.75800
O190        O  0.46762398  0.13538197  0.04290018    -1.11900
O191        O  0.49375703  0.17176656  0.99769283    -0.71100
C192        C  0.47765770  0.15943813  0.47421107     0.99600
C193        C  0.44244554  0.08019232  0.06295817     0.96000
Al194      Al  0.44524994  0.12666811  0.07591188     1.55600
O195        O  0.49280867  0.12073571  0.49863008    -0.75800
C196        C  0.46480840  0.17963430  0.07639863     1.00100
C197        C  0.41334278  0.11002670  0.01965449     0.95000
O198        O  0.42651961  0.10152535  0.00867924    -0.81100
O199        O  0.75907532  0.98338634  0.08928488    -0.80500
C200        C  0.83150278  0.02231743  0.18960620     0.98800
O201        O  0.80883247  0.00662344  0.19577063    -0.69700
O202        O  0.77677568  0.01650049  0.16984113    -0.73200
Al203      Al  0.78029775  0.98885661  0.16552900     1.49000
C204        C  0.77494641  0.03060037  0.14918098     0.94100
O205        O  0.82156365  0.04117830  0.08924953    -0.79500
O206        O  0.81413238  0.97474496  0.09304664    -0.73000
Al207      Al  0.79053023  0.01097648  0.09226442     1.90100
O208        O  0.84405888  0.02417445  0.09401795    -0.72100
O209        O  0.81945077  0.97379065  0.15912490    -0.71900
O210        O  0.84077221  0.02320732  0.16074663    -0.77600
O211        O  0.78031233  0.95843536  0.16772180    -0.75800
O212        O  0.79896767  0.99969259  0.12831435    -1.11900
O213        O  0.74907353  0.97023924  0.14152820    -0.71100
C214        C  0.74363974  0.96886762  0.11038405     0.99600
C215        C  0.84182895  0.04199128  0.08453294     0.96000
Al216      Al  0.82704335  0.99906855  0.12687549     1.55600
O217        O  0.77855575  0.02935487  0.11784197    -0.75800
C218        C  0.79923626  0.95641932  0.16947967     1.00100
C219        C  0.80549584  0.97668401  0.06503005     0.95000
O220        O  0.80022209  0.99355826  0.05999734    -0.81100
O221        O  0.57152300  0.89070765  0.50283664    -0.80500
C222        C  0.50291776  0.85640394  0.39777317     0.98800
O223        O  0.52535784  0.86183614  0.39362047    -0.69700
O224        O  0.55657452  0.90413792  0.41913581    -0.73200
Al225      Al  0.55257642  0.87291269  0.42619190     1.49000
C226        C  0.55707060  0.92044891  0.43797185     0.94100
O227        O  0.50694623  0.88567615  0.99241822    -0.79500
O228        O  0.51431275  0.82661150  0.49859358    -0.73000
Al229      Al  0.53693117  0.88503198  0.99517663     1.90100
O230        O  0.48574166  0.84737162  0.49185908    -0.72100
O231        O  0.51219192  0.81903282  0.43298096    -0.71900
O232        O  0.49215768  0.84826806  0.42589015    -0.77600
O233        O  0.55181877  0.84203727  0.42708229    -0.75800
O234        O  0.53253941  0.86619101  0.46179436    -1.11900
O235        O  0.58311536  0.88587779  0.45252813    -0.71100
C236        C  0.58758217  0.89091280  0.48375695     0.99600
C237        C  0.48577600  0.86699323  0.99445263     0.96000
Al238      Al  0.50372141  0.83791229  0.46232624     1.55600
O239        O  0.55283372  0.91657085  0.46946495    -0.75800
C240        C  0.53262246  0.82122848  0.42489145     1.00100
C241        C  0.51922941  0.83596939  0.02477768     0.95000
O242        O  0.52436071  0.85819445  0.02885992    -0.81100
O243        O  0.67891474  0.11461382  0.24749351    -0.80500
C244        C  0.64546197  0.14758733  0.35696714     0.98800
O245        O  0.66075422  0.14000879  0.35953012    -0.69700
O246        O  0.64507222  0.09726615  0.33226705    -0.73200
Al247      Al  0.67432511  0.12736808  0.32599384     1.49000
C248        C  0.63189410  0.08081177  0.31138293     0.94100
O249        O  0.61944863  0.11558349  0.25600741    -0.79500
O250        O  0.68447848  0.17632837  0.25354363    -0.73000
Al251      Al  0.65033163  0.11639238  0.25435610     1.90100
O252        O  0.63471800  0.15487136  0.26365624    -0.72100
O253        O  0.69175770  0.18202869  0.31903783    -0.71900
O254        O  0.64215390  0.15517166  0.32898878    -0.77600
O255        O  0.70568264  0.15680820  0.32530264    -0.75800
O256        O  0.66261340  0.13593465  0.29052284    -1.11900
O257        O  0.68971760  0.11252499  0.29953693    -0.71100
C258        C  0.69194779  0.11079327  0.26789636     0.99600
C259        C  0.61691738  0.13420076  0.25519496     0.96000
Al260      Al  0.66323058  0.16457657  0.29118908     1.55600
O261        O  0.63405900  0.08543722  0.27986116    -0.75800
C262        C  0.70877123  0.17809070  0.32788328     1.00100
C263        C  0.68114737  0.16616368  0.22494825     0.95000
O264        O  0.66499274  0.14348370  0.22138835    -0.81100
O265        O  0.45070009  0.34847517  0.33902443    -0.80500
C266        C  0.48088025  0.31221668  0.23099439     0.98800
O267        O  0.47450085  0.32842489  0.22737309    -0.69700
O268        O  0.43278853  0.31692231  0.25604867    -0.73200
Al269      Al  0.46410589  0.34455118  0.26084464     1.49000
C270        C  0.41677062  0.30258437  0.27666607     0.94100
O271        O  0.45262087  0.29015366  0.33285032    -0.79500
O272        O  0.51355847  0.35477483  0.33018058    -0.73000
Al273      Al  0.45320273  0.32067623  0.33281320     1.90100
O274        O  0.49188377  0.30501087  0.32441843    -0.72100
O275        O  0.51848059  0.35922336  0.26412084    -0.71900
O276        O  0.48921992  0.30986900  0.25893995    -0.77600
O277        O  0.49468036  0.37481066  0.26002088    -0.75800
O278        O  0.47233557  0.33240280  0.29608160    -1.11900
O279        O  0.45169090  0.36205598  0.28770812    -0.71100
C280        C  0.44892995  0.36304948  0.31935811     0.99600
C281        C  0.47127677  0.28767854  0.33403460     0.96000
Al282      Al  0.50071191  0.33221551  0.29462253     1.55600
O283        O  0.42187275  0.30339786  0.30793806    -0.75800
C284        C  0.51552574  0.37686902  0.25594645     1.00100
C285        C  0.50382568  0.35347329  0.35869528     0.95000
O286        O  0.48132956  0.33702165  0.36425386    -0.81100
O287        O  0.23841216  0.22076250  0.17321102    -0.80500
C288        C  0.17020886  0.19142136  0.06721947     0.98800
O289        O  0.19189954  0.19472957  0.06285647    -0.69700
O290        O  0.22357280  0.23616917  0.08919133    -0.73200
Al291      Al  0.21891133  0.20510612  0.09588664     1.49000
C292        C  0.22588052  0.25296735  0.10853338     0.94100
O293        O  0.17881792  0.22146004  0.16658263    -0.79500
O294        O  0.17841949  0.15890430  0.16768560    -0.73000
Al295      Al  0.20804344  0.21926512  0.16695565     1.90100
O296        O  0.15263849  0.18258914  0.16106892    -0.72100
O297        O  0.17706815  0.15227211  0.10173528    -0.71900
O298        O  0.15922871  0.18375419  0.09525941    -0.77600
O299        O  0.21701450  0.17400722  0.09740243    -0.75800
O300        O  0.19915273  0.19896559  0.13154702    -1.11900
O301        O  0.24954224  0.21774964  0.12168551    -0.71100
C302        C  0.25438328  0.22186658  0.15298007     0.99600
C303        C  0.15708603  0.20377122  0.16898851     0.96000
Al304      Al  0.16946069  0.17175423  0.13144296     1.55600
O305        O  0.22260927  0.24938493  0.14018873    -0.75800
C306        C  0.19730515  0.15379117  0.09401230     1.00100
C307        C  0.18727992  0.16930361  0.19576433     0.95000
O308        O  0.19538206  0.19225717  0.19977827    -0.81100
O309        O  0.35884793  0.44338284  0.42452327    -0.80500
C310        C  0.31022675  0.47231371  0.01382262     0.98800
O311        O  0.32801809  0.46912239  0.02257039    -0.69700
O312        O  0.32327602  0.42901298  0.50249896    -0.73200
Al313      Al  0.34964870  0.46080113  0.49774771     1.49000
C314        C  0.31033986  0.41191260  0.48246562     0.94100
O315        O  0.29912804  0.44251780  0.41811095    -0.79500
O316        O  0.36369693  0.50463517  0.41942408    -0.73000
Al317      Al  0.33010788  0.44462998  0.42383494     1.90100
O318        O  0.31352253  0.48194638  0.41803545    -0.72100
O319        O  0.36276855  0.51416782  0.48455789    -0.71900
O320        O  0.31316687  0.48348025  0.48437857    -0.77600
O321        O  0.37684978  0.49072843  0.99643651    -0.75800
O322        O  0.33947612  0.46609949  0.45810966    -1.11900
O323        O  0.37098305  0.44965195  0.47761507    -0.71100
C324        C  0.37336761  0.44457098  0.44716223     0.99600
C325        C  0.29678436  0.46054965  0.41044216     0.96000
Al326      Al  0.33844095  0.49363112  0.45218876     1.55600
O327        O  0.31259713  0.41531987  0.45089442    -0.75800
C328        C  0.37682551  0.51071175  0.99732367     1.00100
C329        C  0.36285886  0.49283337  0.39295790     0.95000
O330        O  0.34670087  0.47016568  0.38962559    -0.81100
O331        O  0.52048628  0.66460346  0.14392441    -0.80500
C332        C  0.52142878  0.68556746  0.28055461     0.98800
O333        O  0.51290025  0.68876562  0.25330482    -0.69700
O334        O  0.50987014  0.69561889  0.18786347    -0.73200
Al335      Al  0.50200989  0.66754317  0.21567444     1.49000
C336        C  0.52975863  0.71297713  0.17612349     0.94100
O337        O  0.58096393  0.69834008  0.19823277    -0.79500
O338        O  0.55594750  0.64239642  0.21783996    -0.73000
Al339      Al  0.54906511  0.68076879  0.17450707     1.90100
O340        O  0.57122753  0.68665147  0.25111862    -0.72100
O341        O  0.51204380  0.62578534  0.24544946    -0.71900
O342        O  0.52919696  0.67036785  0.28181903    -0.77600
O343        O  0.48592005  0.63892258  0.24396936    -0.75800
O344        O  0.53100206  0.66863618  0.21202374    -1.11900
O345        O  0.48878894  0.64614917  0.17865902    -0.71100
C346        C  0.49789492  0.64857727  0.14944819     0.99600
C347        C  0.58670170  0.70038888  0.22945031     0.96000
Al348      Al  0.54119375  0.65723827  0.24607529     1.55600
O349        O  0.54874739  0.71094462  0.17592881    -0.75800
C350        C  0.49036738  0.62176607  0.24913831     1.00100
C351        C  0.55692401  0.64025710  0.18602967     0.95000
O352        O  0.55202356  0.65296666  0.16662339    -0.81100
O353        O  0.66416358  0.52735935  0.11268617    -0.80500
C354        C  0.69020873  0.52587218  0.48357947     0.98800
O355        O  0.68991833  0.51489208  0.00909691    -0.69700
O356        O  0.69449708  0.51528860  0.07498698    -0.73200
Al357      Al  0.66732764  0.50545257  0.04477992     1.49000
C358        C  0.71259039  0.53605501  0.08236102     0.94100
O359        O  0.69664810  0.58467719  0.05356121    -0.79500
O360        O  0.63879731  0.55483816  0.03237201    -0.73000
Al361      Al  0.67968834  0.55413490  0.07944239     1.90100
O362        O  0.68462477  0.57231912  0.00169537    -0.72100
O363        O  0.62648113  0.51232241  0.51021142    -0.71900
O364        O  0.67362953  0.53169016  0.47864688    -0.77600
O365        O  0.64003419  0.48696979  0.01484571    -0.75800
O366        O  0.66783560  0.53399338  0.04362410    -1.11900
O367        O  0.64460771  0.49448938  0.08024735    -0.71100
C368        C  0.64690463  0.50521337  0.10814908     0.99600
C369        C  0.69844160  0.58886426  0.02201006     0.96000
Al370      Al  0.65641296  0.54155449  0.00705979     1.55600
O371        O  0.71054010  0.55483756  0.07936978    -0.75800
C372        C  0.62420599  0.49140066  0.50730624     1.00100
C373        C  0.63695935  0.55784318  0.06386381     0.95000
O374        O  0.65117857  0.55622574  0.08467165    -0.81100
O375        O  0.80958463  0.80427987  0.44756170    -0.80500
C376        C  0.81522677  0.83491474  0.31732608     0.98800
O377        O  0.82445641  0.84467825  0.34560724    -0.69700
O378        O  0.82507893  0.84923674  0.41201453    -0.73200
Al379      Al  0.83357849  0.83121349  0.38092138     1.49000
C380        C  0.80466622  0.84727989  0.41960011     0.94100
O381        O  0.75356063  0.78498484  0.38567661    -0.79500
O382        O  0.78474679  0.75359501  0.36814625    -0.73000
Al383      Al  0.78325877  0.79572161  0.41363964     1.90100
O384        O  0.76596260  0.77979825  0.33630193    -0.72100
O385        O  0.82763982  0.78414531  0.34221139    -0.71900
O386        O  0.80834856  0.81231349  0.31146348    -0.77600
O387        O  0.85220855  0.82290149  0.35032182    -0.75800
O388        O  0.80432997  0.80338322  0.37899025    -1.11900
O389        O  0.84347133  0.81844774  0.41628371    -0.71100
C390        C  0.83185540  0.80899252  0.44351036     0.99600
C391        C  0.74956898  0.77987637  0.35435776     0.96000
Al392      Al  0.79729183  0.78412635  0.34265714     1.55600
O393        O  0.78522098  0.82700553  0.41519920    -0.75800
C394        C  0.84889974  0.80251924  0.34028793     1.00100
C395        C  0.77875365  0.74855359  0.39903257     0.95000
O396        O  0.77774290  0.76389579  0.41821200    -0.81100
C397        C  0.74654641  0.68035776  0.41969917     0.13900
C398        C  0.75561161  0.68081876  0.45261566     0.00900
C399        C  0.77440628  0.70335835  0.46548025     0.15900
C400        C  0.78286693  0.72506975  0.44686098     0.25300
C401        C  0.77305552  0.72480525  0.41463813    -0.41100
C402        C  0.75533007  0.70214758  0.40079502     0.32300
C403        C  0.74461839  0.65811192  0.47401868     0.01000
F404        F  0.78433433  0.70445102  0.49642530    -0.13400
F405        F  0.74520997  0.70132223  0.37011390    -0.13900
C406        C  0.74272034  0.63629429  0.46154543     0.15900
C407        C  0.72968695  0.61427342  0.47969852     0.25300
C408        C  0.71630498  0.61319815  0.00715373    -0.41000
C409        C  0.72031660  0.63543186  0.02132605     0.32200
C410        C  0.73305541  0.65750934  0.00278550     0.14000
F411        F  0.75308535  0.63618928  0.43135686    -0.13400
F412        F  0.71058568  0.63556192  0.05202091    -0.13900
F413        F  0.72725214  0.59332822  0.46607810    -0.16200
F414        F  0.73550741  0.67848677  0.01624145    -0.14700
F415        F  0.72809778  0.65901682  0.40662331    -0.14700
F416        F  0.80032059  0.74662940  0.46079137    -0.16100
C417        C  0.65462852  0.72782564  0.24991687     0.13900
C418        C  0.65729902  0.74238367  0.27872205     0.00900
C419        C  0.63724106  0.74542137  0.28785575     0.15900
C420        C  0.61478875  0.73312647  0.27008189     0.25300
C421        C  0.61193496  0.71800152  0.24210608    -0.41100
C422        C  0.63229613  0.71601338  0.23165901     0.32300
C423        C  0.68074742  0.75400320  0.29929294     0.01000
F424        F  0.63926405  0.76016002  0.31425819    -0.13400
F425        F  0.62995073  0.70105836  0.20536984    -0.13900
C426        C  0.70380647  0.76777112  0.28325402     0.15900
C427        C  0.72583778  0.77714585  0.30166564     0.25300
C428        C  0.72570002  0.77329260  0.33699842    -0.41000
C429        C  0.70265788  0.76071897  0.35352072     0.32200
C430        C  0.68044510  0.75100543  0.33486327     0.14000
F431        F  0.70511590  0.77215039  0.24943156    -0.13400
F432        F  0.70155227  0.75662106  0.38738173    -0.13900
F433        F  0.74751808  0.78983216  0.28451074    -0.16200
F434        F  0.65864557  0.73758552  0.35143440    -0.14700
F435        F  0.67315049  0.72379332  0.24052645    -0.14700
F436        F  0.59547607  0.73549393  0.28076089    -0.16100
C437        C  0.56316988  0.59921896  0.12065008     0.13900
C438        C  0.58241556  0.59643119  0.13387567     0.00900
C439        C  0.59179371  0.60635023  0.16621892     0.15900
C440        C  0.58279471  0.61960319  0.18419020     0.25300
C441        C  0.56426076  0.62327359  0.17018154    -0.41100
C442        C  0.55424565  0.61242116  0.13851108     0.32300
C443        C  0.59329835  0.58405828  0.11349692     0.01000
F444        F  0.61054474  0.60423550  0.17974950    -0.13400
F445        F  0.53569071  0.61464270  0.12463537    -0.13900
C446        C  0.60285799  0.59244227  0.08067680     0.15900
C447        C  0.61531229  0.58246879  0.06296407     0.25300
C448        C  0.61878736  0.56419332  0.07788909    -0.41000
C449        C  0.60779731  0.55469343  0.10970302     0.32200
C450        C  0.59510162  0.56440262  0.12716692     0.14000
F451        F  0.60146509  0.61134810  0.06653594    -0.13400
F452        F  0.60992184  0.53632390  0.12436122    -0.13900
F453        F  0.62556185  0.59197571  0.03236486    -0.16200
F454        F  0.58487897  0.55482428  0.15777508    -0.14700
F455        F  0.55296531  0.58915974  0.09024379    -0.14700
F456        F  0.59321948  0.63002242  0.21432874    -0.16100
C457        C  0.42275955  0.53770350  0.35021681     0.13900
C458        C  0.41601136  0.53478549  0.31591982     0.00900
C459        C  0.39203869  0.51640003  0.30654953     0.15900
C460        C  0.37479310  0.50182799  0.33143817     0.25300
C461        C  0.38122677  0.50592518  0.36595150    -0.41100
C462        C  0.40553292  0.52356933  0.37497099     0.32300
C463        C  0.43313490  0.55346719  0.29147308     0.01000
F464        F  0.38516824  0.51311282  0.27349379    -0.13400
F465        F  0.41256400  0.52742878  0.40797426    -0.13900
C466        C  0.45698529  0.55718763  0.28643437     0.15900
C467        C  0.47535445  0.57880255  0.27111038     0.25300
C468        C  0.47022585  0.59725858  0.26084046    -0.41000
C469        C  0.44568677  0.59244114  0.26356039     0.32200
C470        C  0.42737442  0.57073118  0.27859294     0.14000
F471        F  0.46281253  0.54044836  0.29808329    -0.13400
F472        F  0.43950208  0.60919958  0.25320817    -0.13900
F473        F  0.49842700  0.58210162  0.26803576    -0.16200
F474        F  0.40441929  0.56750029  0.28306495    -0.14700
F475        F  0.44572686  0.55538879  0.35995835    -0.14700
F476        F  0.35149763  0.48478137  0.32197844    -0.16100
C477        C  0.43387638  0.55171037  0.05109305     0.13900
C478        C  0.43266789  0.57338496  0.05376680     0.00900
C479        C  0.41408571  0.57487867  0.03590788     0.15900
C480        C  0.39652754  0.55492158  0.01680752     0.25300
C481        C  0.39707902  0.53277184  0.01494439    -0.41100
C482        C  0.41637842  0.53168637  0.03182375     0.32300
C483        C  0.44970079  0.59385384  0.07670874     0.01000
F484        F  0.41276859  0.59575059  0.03723593    -0.13400
F485        F  0.41805445  0.51100844  0.03055464    -0.13900
C486        C  0.47553022  0.60609793  0.07236896     0.15900
C487        C  0.49129027  0.62510494  0.09453719     0.25300
C488        C  0.48158408  0.63166206  0.12224998    -0.41000
C489        C  0.45563243  0.61981442  0.12581321     0.32200
C490        C  0.43997459  0.60124809  0.10334752     0.14000
F491        F  0.48551310  0.59963676  0.04662684    -0.13400
F492        F  0.44524222  0.62606215  0.15130229    -0.13900
F493        F  0.51604712  0.63659833  0.08933974    -0.16200
F494        F  0.41516650  0.58985584  0.10837741    -0.14700
F495        F  0.45138381  0.54950573  0.06835622    -0.14700
F496        F  0.37869655  0.55726581  0.00071316    -0.16100
C497        C  0.23642464  0.29852242  0.03954703     0.13900
C498        C  0.25404843  0.32080101  0.05417954     0.00900
C499        C  0.25992350  0.32129174  0.08874861     0.15900
C500        C  0.24946373  0.29941406  0.10772472     0.25300
C501        C  0.23300392  0.27685601  0.09229215    -0.41100
C502        C  0.22588089  0.27685122  0.05837451     0.32300
C503        C  0.26673467  0.34318426  0.03279642     0.01000
F504        F  0.27678865  0.34272013  0.10357991    -0.13400
F505        F  0.20918213  0.25558602  0.04293291    -0.13900
C506        C  0.26405702  0.36357037  0.03970442     0.15900
C507        C  0.27661257  0.38490242  0.02014014     0.25300
C508        C  0.29266935  0.38785821  0.49742099    -0.41000
C509        C  0.28927882  0.36573773  0.48374191     0.32200
C510        C  0.28137866  0.34411087  0.00503431     0.14000
F511        F  0.24945066  0.36288263  0.06563585    -0.13400
F512        F  0.30047120  0.36574186  0.45425464    -0.13900
F513        F  0.27427887  0.40464083  0.02814051    -0.16200
F514        F  0.28449562  0.32470243  0.99812241    -0.14700
F515        F  0.22979823  0.29768149  0.00662986    -0.14700
F516        F  0.25666318  0.30008394  0.14029879    -0.16100
C517        C  0.56940377  0.45496310  0.44882065     0.13900
C518        C  0.56381863  0.43070799  0.45517579     0.00900
C519        C  0.57635757  0.42636182  0.48118802     0.15900
C520        C  0.59519640  0.44603899  0.49926596     0.25300
C521        C  0.60176058  0.47052126  0.49182601    -0.41100
C522        C  0.58805235  0.47469384  0.46716135     0.32300
C523        C  0.54796597  0.41060043  0.43137782     0.01000
F524        F  0.57138798  0.40312143  0.48764297    -0.13400
F525        F  0.59378804  0.49795154  0.45911849    -0.13900
C526        C  0.55735660  0.41014630  0.39936395     0.15900
C527        C  0.54334594  0.39126911  0.37648292     0.25300
C528        C  0.51920275  0.37220509  0.38488251    -0.41000
C529        C  0.50991359  0.37254452  0.41738598     0.32200
C530        C  0.52425761  0.39154078  0.44046334     0.14000
F531        F  0.58043082  0.42805808  0.39029392    -0.13400
F532        F  0.48693988  0.35469791  0.42682067    -0.13900
F533        F  0.55360616  0.39204922  0.34583753    -0.16200
F534        F  0.51489309  0.39153875  0.47148821    -0.14700
F535        F  0.55754378  0.45960896  0.42370367    -0.14700
F536        F  0.60606807  0.43959307  0.01986580    -0.16100
C537        C  0.58644611  0.45901965  0.14807779     0.13900
C538        C  0.59294384  0.45918670  0.18209695     0.00900
C539        C  0.61715355  0.47626258  0.19264026     0.15900
C540        C  0.63478064  0.49237377  0.16911298     0.25300
C541        C  0.62843626  0.49119965  0.13473542    -0.41100
C542        C  0.60392035  0.47483763  0.12473621     0.32300
C543        C  0.57458419  0.44031446  0.20543453     0.01000
F544        F  0.62376045  0.47703741  0.22553586    -0.13400
F545        F  0.59687805  0.47390915  0.09198156    -0.13900
C546        C  0.57872475  0.42207223  0.21889884     0.15900
C547        C  0.55986581  0.40189880  0.23622220     0.25300
C548        C  0.53631648  0.39948150  0.24039922    -0.41000
C549        C  0.53261143  0.41838500  0.22790184     0.32200
C550        C  0.55154873  0.43853867  0.21067860     0.14000
F551        F  0.60061980  0.42303646  0.21353581    -0.13400
F552        F  0.51038548  0.41704637  0.23113795    -0.13900
F553        F  0.56454319  0.38434397  0.24780553    -0.16200
F554        F  0.54714413  0.45603559  0.19808516    -0.14700
F555        F  0.56334231  0.44266090  0.13703929    -0.14700
F556        F  0.65819080  0.50818671  0.17958404    -0.16100
C557        C  0.34795736  0.27132687  0.25714630     0.13900
C558        C  0.34695777  0.26049628  0.22542009     0.00900
C559        C  0.36839332  0.26130404  0.21311870     0.15900
C560        C  0.39057101  0.27346801  0.23134961     0.25300
C561        C  0.39195732  0.28521331  0.26239614    -0.41100
C562        C  0.37029110  0.28365499  0.27544725     0.32300
C563        C  0.32386308  0.24904083  0.20464453     0.01000
F564        F  0.36794964  0.25062476  0.18303273    -0.13400
F565        F  0.37113659  0.29557278  0.30454216    -0.13900
C566        C  0.32287185  0.25949704  0.17352120     0.15900
C567        C  0.30065185  0.24958627  0.15506149     0.25300
C568        C  0.27905842  0.22896394  0.16731553    -0.41000
C569        C  0.28046064  0.21785181  0.19754463     0.32200
C570        C  0.30256281  0.22778328  0.21601114     0.14000
F571        F  0.34313505  0.28007622  0.16187703    -0.13400
F572        F  0.26013423  0.19753029  0.20957054    -0.13900
F573        F  0.29982196  0.26116816  0.12653994    -0.16200
F574        F  0.30310592  0.21677395  0.24527749    -0.14700
F575        F  0.32760512  0.27110166  0.26951258    -0.14700
F576        F  0.41108176  0.27446651  0.21807525    -0.16100
C577        C  0.41559228  0.43890122  0.38586433     0.13900
C578        C  0.41556898  0.41797426  0.39792995     0.00900
C579        C  0.40557052  0.40874809  0.43025287     0.15900
C580        C  0.39403718  0.41924673  0.44897759     0.25300
C581        C  0.39265781  0.43922553  0.43569877    -0.41100
C582        C  0.40450368  0.44955336  0.40465935     0.32300
C583        C  0.42521738  0.40545628  0.37605806     0.01000
F584        F  0.40540561  0.38852665  0.44253344    -0.13400
F585        F  0.40355389  0.46891265  0.39120148    -0.13900
C586        C  0.44624414  0.40455527  0.38580481     0.15900
C587        C  0.45510578  0.39240822  0.36557115     0.25300
C588        C  0.44304094  0.38077472  0.33520502    -0.41000
C589        C  0.42248529  0.38236957  0.32477080     0.32200
C590        C  0.41361659  0.39462478  0.34507854     0.14000
F591        F  0.45802918  0.41521298  0.41518685    -0.13400
F592        F  0.40995927  0.37056635  0.29632023    -0.13900
F593        F  0.47513286  0.39129570  0.37619455    -0.16200
F594        F  0.39297636  0.39489572  0.33535155    -0.14700
F595        F  0.42546098  0.44840835  0.35508148    -0.14700
F596        F  0.38224299  0.40848859  0.47833473    -0.16100
C597        C  0.60302525  0.01270014  0.33129678     0.13900
C598        C  0.59060148  0.01088834  0.36198521     0.00900
C599        C  0.58921713  0.03141001  0.37298741     0.15900
C600        C  0.60110791  0.05359673  0.35486574     0.25300
C601        C  0.61472294  0.05588202  0.32526146    -0.41100
C602        C  0.61504246  0.03501325  0.31317528     0.32300
C603        C  0.58008229  0.98806829  0.38320827     0.01000
F604        F  0.57662172  0.03007386  0.40168178    -0.13400
F605        F  0.62854859  0.03672854  0.28530436    -0.13900
C606        C  0.58881487  0.98875646  0.41637197     0.15900
C607        C  0.58028800  0.96700536  0.43538285     0.25300
C608        C  0.56289502  0.94412961  0.42156988    -0.41000
C609        C  0.55323488  0.94368692  0.38912573     0.32200
C610        C  0.56176488  0.96533927  0.37018208     0.14000
F611        F  0.60656354  0.01038775  0.42971812    -0.13400
F612        F  0.53562634  0.92207089  0.37549980    -0.13900
F613        F  0.59018746  0.96815481  0.46634436    -0.16200
F614        F  0.55222743  0.96406680  0.33889849    -0.14700
F615        F  0.60474900  0.99326183  0.31988139    -0.14700
F616        F  0.59982720  0.07317594  0.36673723    -0.16100
C617        C  0.55188430  0.77325644  0.12812247     0.13900
C618        C  0.52984352  0.77378388  0.12407552     0.00900
C619        C  0.50829619  0.75549718  0.13999124     0.15900
C620        C  0.50849033  0.73642910  0.15820461     0.25300
C621        C  0.53030165  0.73507602  0.16083819    -0.41100
C622        C  0.55216200  0.75420961  0.14622219     0.32300
C623        C  0.52869700  0.79145480  0.09993676     0.01000
F624        F  0.48662087  0.75522052  0.13615519    -0.13400
F625        F  0.57376273  0.75415627  0.14831875    -0.13900
C626        C  0.53449599  0.79090676  0.06569639     0.15900
C627        C  0.53201966  0.80596280  0.04198754     0.25300
C628        C  0.52358100  0.82204810  0.05170453    -0.41000
C629        C  0.51861011  0.82339109  0.08617653     0.32200
C630        C  0.52091965  0.80801305  0.11008220     0.14000
F631        F  0.54175783  0.77502957  0.05485641    -0.13400
F632        F  0.51063669  0.83880292  0.09648275    -0.13900
F633        F  0.53794436  0.80476580  0.00918881    -0.16200
F634        F  0.51545465  0.80918172  0.14306469    -0.14700
F635        F  0.57312440  0.79090133  0.11356379    -0.14700
F636        F  0.48692947  0.71872626  0.17196733    -0.16100
C637        C  0.55138933  0.78133504  0.37436834     0.13900
C638        C  0.53115412  0.75754617  0.38003520     0.00900
C639        C  0.51292798  0.75475098  0.40340231     0.15900
C640        C  0.51392555  0.77531902  0.41884548     0.25300
C641        C  0.53343260  0.79932084  0.41175262    -0.41100
C642        C  0.55261543  0.80196872  0.39021454     0.32300
C643        C  0.52743055  0.73629551  0.35857524     0.01000
F644        F  0.49367519  0.73201301  0.41060134    -0.13400
F645        F  0.57186330  0.82464715  0.38280476    -0.13900
C646        C  0.54549975  0.72925800  0.35599908     0.15900
C647        C  0.54275251  0.71113371  0.33253061     0.25300
C648        C  0.52220574  0.70023424  0.31066835    -0.41000
C649        C  0.50344636  0.70608358  0.31502501     0.32200
C650        C  0.50600088  0.72381845  0.33861070     0.14000
F651        F  0.56602171  0.74028047  0.37569942    -0.13400
F652        F  0.48274626  0.69501632  0.29564720    -0.13900
F653        F  0.56077849  0.70525497  0.32996639    -0.16200
F654        F  0.48803359  0.72982858  0.34046012    -0.14700
F655        F  0.56923209  0.78481856  0.35177395    -0.14700
F656        F  0.49543786  0.77167237  0.44035775    -0.16100
C657        C  0.78546150  0.88524910  0.47351872     0.13900
C658        C  0.80554419  0.90920341  0.46890338     0.00900
C659        C  0.82422001  0.91289272  0.44581540     0.15900
C660        C  0.82348581  0.89289969  0.42895163     0.25300
C661        C  0.80394982  0.86868964  0.43467447    -0.41100
C662        C  0.78459210  0.86520476  0.45650491     0.32300
C663        C  0.79894941  0.92340490  0.99169216     0.01000
F664        F  0.83721470  0.91283482  0.99943630    -0.13400
F665        F  0.76549893  0.84224616  0.46299263    -0.13900
C666        C  0.78617653  0.91594388  0.02259917     0.15900
C667        C  0.78764155  0.93341716  0.04583858     0.25300
C668        C  0.80156159  0.95865692  0.03832738    -0.41000
C669        C  0.81355749  0.96616630  0.00684401     0.32200
C670        C  0.81247391  0.94862388  0.98377065     0.14000
F671        F  0.77323528  0.89172518  0.03090857    -0.13400
F672        F  0.82763636  0.99046976  0.99947498    -0.13900
F673        F  0.77592841  0.92573852  0.07615225    -0.16200
F674        F  0.77242731  0.92837916  0.46824782    -0.14700
F675        F  0.76738523  0.88106728  0.49610886    -0.14700
F676        F  0.84211893  0.89726278  0.40727657    -0.16100
C677        C  0.80652327  0.86038528  0.23364752     0.13900
C678        C  0.80467957  0.88062052  0.24510199     0.00900
C679        C  0.80683958  0.88582755  0.27988728     0.15900
C680        C  0.81034429  0.87103817  0.30288799     0.25300
C681        C  0.81191863  0.85049806  0.29178251    -0.41100
C682        C  0.80994634  0.84533580  0.25680735     0.32300
C683        C  0.80108293  0.89696269  0.22139063     0.01000
F684        F  0.80591904  0.90564140  0.29167584    -0.13400
F685        F  0.81173889  0.82603971  0.24496313    -0.13900
C686        C  0.78070052  0.90044858  0.22527802     0.15900
C687        C  0.77928884  0.91882742  0.20705633     0.25300
C688        C  0.79847113  0.93439847  0.18486045    -0.41000
C689        C  0.81807563  0.92977122  0.17939995     0.32200
C690        C  0.81931449  0.91123851  0.19742349     0.14000
F691        F  0.76250020  0.88651805  0.24769832    -0.13400
F692        F  0.83648159  0.94359084  0.15716138    -0.13900
F693        F  0.75974578  0.92212429  0.21251459    -0.16200
F694        F  0.83910610  0.90820583  0.19283896    -0.14700
F695        F  0.80473582  0.85505159  0.20009563    -0.14700
F696        F  0.81170227  0.87672923  0.33631371    -0.16100
C697        C  0.72573368  0.07573676  0.25135734     0.13900
C698        C  0.73554984  0.08432718  0.21875338     0.00900
C699        C  0.73320994  0.10347878  0.20453681     0.15900
C700        C  0.72024804  0.11296977  0.22161143     0.25300
C701        C  0.70929927  0.10358057  0.25342783    -0.41100
C702        C  0.71276771  0.08533705  0.26860461     0.32300
C703        C  0.74731692  0.07273945  0.19892998     0.01000
F704        F  0.74325397  0.11281968  0.17377327    -0.13400
F705        F  0.70226169  0.07567321  0.29904473    -0.13900
C706        C  0.73763518  0.06167574  0.16726944     0.15900
C707        C  0.74776969  0.04944612  0.14948772     0.25300
C708        C  0.76769506  0.04798075  0.16314157    -0.41000
C709        C  0.77800288  0.05998770  0.19405529     0.32200
C710        C  0.76794877  0.07222544  0.21173475     0.14000
F711        F  0.71748154  0.06156697  0.15444792    -0.13400
F712        F  0.79759715  0.05937233  0.20755438    -0.13900
F713        F  0.73697198  0.03754822  0.12023662    -0.16200
F714        F  0.77821045  0.08335379  0.24162340    -0.14700
F715        F  0.72755475  0.05713119  0.26573407    -0.14700
F716        F  0.71804298  0.13118707  0.20667262    -0.16100
C717        C  0.67451258  0.93398081  0.09431156     0.13900
C718        C  0.67377993  0.92486396  0.06140730     0.00900
C719        C  0.69547686  0.92715558  0.04757587     0.15900
C720        C  0.71782313  0.93982173  0.06507140     0.25300
C721        C  0.71904316  0.95053330  0.09690846    -0.41100
C722        C  0.69703251  0.94672261  0.11199553     0.32300
C723        C  0.65102505  0.91447759  0.04033583     0.01000
F724        F  0.69514748  0.91776862  0.01646741    -0.13400
F725        F  0.69762029  0.95694954  0.14252353    -0.13900
C726        C  0.65104529  0.92601961  0.00973639     0.15900
C727        C  0.62962964  0.91663051  0.98985716     0.25300
C728        C  0.61164369  0.89759471  0.49984557    -0.41000
C729        C  0.60784390  0.88392781  0.03074297     0.32200
C730        C  0.62931658  0.89313270  0.05039051     0.14000
F731        F  0.67153959  0.94712420  0.99995502    -0.13400
F732        F  0.58686310  0.86375672  0.04174263    -0.13900
F733        F  0.63497078  0.92484004  0.45464469    -0.16200
F734        F  0.62886800  0.88132466  0.07937234    -0.14700
F735        F  0.65376626  0.93194544  0.10837329    -0.14700
F736        F  0.73861412  0.94251696  0.05018705    -0.16100
C737        C  0.56905348  0.15218830  0.23358611     0.13900
C738        C  0.55370982  0.13357601  0.21072521     0.00900
C739        C  0.55720518  0.11331659  0.20634397     0.15900
C740        C  0.57680765  0.11264722  0.22249897     0.25300
C741        C  0.59360913  0.13247131  0.24285839    -0.41100
C742        C  0.58889180  0.15180679  0.24918222     0.32300
C743        C  0.53638233  0.13691976  0.18849638     0.01000
F744        F  0.54269966  0.09492989  0.18460039    -0.13400
F745        F  0.60387702  0.17081602  0.26980583    -0.13900
C746        C  0.54546205  0.15834881  0.16877835     0.15900
C747        C  0.53025408  0.16116188  0.14559505     0.25300
C748        C  0.50547501  0.14236825  0.14089808    -0.41000
C749        C  0.49612939  0.12114487  0.16143323     0.32200
C750        C  0.51140216  0.11854431  0.18509000     0.14000
F751        F  0.56960924  0.17622589  0.17065259    -0.13400
F752        F  0.47249469  0.10240981  0.15783796    -0.13900
F753        F  0.54029174  0.18210004  0.12688445    -0.16200
F754        F  0.50183974  0.09790801  0.20438264    -0.14700
F755        F  0.56535622  0.17131764  0.23988830    -0.14700
F756        F  0.58015835  0.09328382  0.21644269    -0.16100
C757        C  0.60583650  0.12636212  0.43627328     0.13900
C758        C  0.59696864  0.14289867  0.43740467     0.00900
C759        C  0.60601377  0.16232068  0.41400984     0.15900
C760        C  0.62266550  0.16445987  0.38879205     0.25300
C761        C  0.63079649  0.14731136  0.38662869    -0.41100
C762        C  0.62287381  0.12872460  0.41133893     0.32300
C763        C  0.57666671  0.13883862  0.46069257     0.01000
F764        F  0.59766479  0.17848528  0.41445647    -0.13400
F765        F  0.63054120  0.11204479  0.41029838    -0.13900
C766        C  0.57998363  0.15677628  0.48461168     0.15900
C767        C  0.55978600  0.15469018  0.50280527     0.25300
C768        C  0.53576158  0.13462798  0.49713906    -0.41000
C769        C  0.53284356  0.11599986  0.47445482     0.32200
C770        C  0.55307980  0.11813595  0.45643156     0.14000
F771        F  0.60269450  0.17683596  0.48937549    -0.13400
F772        F  0.51020335  0.09613773  0.46846899    -0.13900
F773        F  0.56363421  0.17310637  0.52437404    -0.16200
F774        F  0.54933075  0.10072341  0.43309246    -0.14700
F775        F  0.59746868  0.10754692  0.45878504    -0.14700
F776        F  0.63048298  0.18310140  0.36605122    -0.16100
C777        C  0.45317718  0.18211284  0.40314457     0.13900
C778        C  0.47304354  0.20612254  0.39821681     0.00900
C779        C  0.49537479  0.21351288  0.41520250     0.15900
C780        C  0.49731437  0.19786730  0.43857610     0.25300
C781        C  0.47697299  0.17423731  0.44518883    -0.41100
C782        C  0.45516005  0.16621288  0.42617683     0.32300
C783        C  0.46992982  0.22451641  0.37859715     0.01000
F784        F  0.51492491  0.23654647  0.41066645    -0.13400
F785        F  0.43518534  0.14353793  0.43127776    -0.13900
C786        C  0.45457052  0.23302047  0.39123537     0.15900
C787        C  0.45423548  0.25293916  0.37593306     0.25300
C788        C  0.46944397  0.26487663  0.34782247    -0.41000
C789        C  0.48415297  0.25576643  0.33446829     0.32200
C790        C  0.48428346  0.23568494  0.34960484     0.14000
F791        F  0.44100881  0.22295886  0.41971798    -0.13400
F792        F  0.49865167  0.26650320  0.30695800    -0.13900
F793        F  0.44031241  0.26159074  0.39004859    -0.16200
F794        F  0.49883560  0.22745461  0.33641692    -0.14700
F795        F  0.43157165  0.17435228  0.38642058    -0.14700
F796        F  0.51923800  0.20720869  0.95458882    -0.16100
C797        C  0.46541429  0.27864296  0.14583272     0.13900
C798        C  0.47165794  0.26050878  0.15239488     0.00900
C799        C  0.48216730  0.26044035  0.18359650     0.15900
C800        C  0.48562452  0.27753661  0.20846374     0.25300
C801        C  0.47861129  0.29538107  0.20285688    -0.41100
C802        C  0.46875609  0.29593732  0.17094424     0.32300
C803        C  0.46617533  0.24044520  0.12820292     0.01000
F804        F  0.48877122  0.24334839  0.19025572    -0.13400
F805        F  0.46185310  0.31276761  0.16420964    -0.13900
C806        C  0.48046425  0.24476672  0.09886896     0.15900
C807        C  0.47893116  0.22496506  0.08041959     0.25300
C808        C  0.46309361  0.20050097  0.09123659    -0.41000
C809        C  0.44749930  0.19642448  0.11932124     0.32200
C810        C  0.44912747  0.21618133  0.13755639     0.14000
F811        F  0.49716614  0.26813191  0.08952368    -0.13400
F812        F  0.43163777  0.17333754  0.13064890    -0.13900
F813        F  0.49398234  0.22987443  0.05319633    -0.16200
F814        F  0.43510938  0.21163078  0.16585688    -0.14700
F815        F  0.45538207  0.27908162  0.11559535    -0.14700
F816        F  0.49544854  0.27605386  0.23835774    -0.16100
C817        C  0.32228886  0.06650454  0.40657483     0.13900
C818        C  0.32398721  0.07627655  0.43925184     0.00900
C819        C  0.30272894  0.07436261  0.45406068     0.15900
C820        C  0.27983461  0.06134068  0.43776227     0.25300
C821        C  0.27768033  0.05004870  0.40606539    -0.41100
C822        C  0.29934634  0.05375142  0.38989224     0.32300
C823        C  0.34677723  0.08530643  0.45998705     0.01000
F824        F  0.30386187  0.08370643  0.48545083    -0.13400
F825        F  0.29807853  0.04350614  0.35914098    -0.13900
C826        C  0.36197513  0.11040760  0.46791483     0.15900
C827        C  0.38270607  0.11824938  0.48911078     0.25300
C828        C  0.38935821  0.10170255  0.00249477    -0.41000
C829        C  0.37626705  0.07754513  0.98965540     0.32200
C830        C  0.35509688  0.06974122  0.97002532     0.14000
F831        F  0.35707340  0.12731659  0.45441776    -0.13400
F832        F  0.38400077  0.06130212  0.99617404    -0.13900
F833        F  0.39783580  0.14265158  0.49490404    -0.16200
F834        F  0.34271987  0.04608151  0.95898844    -0.14700
F835        F  0.34265997  0.06835252  0.39152095    -0.14700
F836        F  0.25950676  0.05895893  0.45366734    -0.16100
C837        C  0.21597530  0.11524851  0.04100113     0.13900
C838        C  0.19504094  0.09169033  0.04408172     0.00900
C839        C  0.17599778  0.08823718  0.06628365     0.15900
C840        C  0.17721414  0.10821301  0.08372702     0.25300
C841        C  0.19757607  0.13214051  0.07929325    -0.41100
C842        C  0.21728132  0.13528438  0.05846217     0.32300
C843        C  0.19389035  0.07277688  0.51319649     0.01000
F844        F  0.15948666  0.06595183  0.56469682    -0.13400
F845        F  0.23713356  0.15800305  0.05313102    -0.13900
C846        C  0.20720268  0.06171849  0.02127402     0.15900
C847        C  0.20380224  0.04197593  0.49345428     0.25300
C848        C  0.18782072  0.03645427  0.46549231    -0.41000
C849        C  0.17426751  0.04876442  0.46268153     0.32200
C850        C  0.17730098  0.06663876  0.48623030     0.14000
F851        F  0.22536479  0.06940608  0.04484681    -0.13400
F852        F  0.15812114  0.04375369  0.43685221    -0.13900
F853        F  0.22039151  0.03533808  0.99781727    -0.16200
F854        F  0.16441736  0.07852421  0.48220930    -0.14700
F855        F  0.23442179  0.11917668  0.01924381    -0.14700
F856        F  0.15813420  0.10417169  0.10431171    -0.16100
C857        C  0.17648406  0.11308487  0.24448941     0.13900
C858        C  0.19468033  0.12328530  0.26967431     0.00900
C859        C  0.20935751  0.14897999  0.27236438     0.15900
C860        C  0.20615572  0.16428108  0.24956982     0.25300
C861        C  0.18845341  0.15397143  0.22345035    -0.41100
C862        C  0.17332037  0.12816732  0.22177297     0.32300
C863        C  0.19811394  0.10650657  0.29224774     0.01000
F864        F  0.22687254  0.15918819  0.29684487    -0.13400
F865        F  0.15557759  0.11729919  0.19766658    -0.13900
C866        C  0.21945871  0.10456420  0.28989194     0.15900
C867        C  0.22023294  0.08495470  0.30551128     0.25300
C868        C  0.19956407  0.06696609  0.32358780    -0.41000
C869        C  0.17902920  0.07023083  0.32801903     0.32200
C870        C  0.17832770  0.08971534  0.31239087     0.14000
F871        F  0.23882042  0.12062365  0.27048672    -0.13400
F872        F  0.15911077  0.05407872  0.34652011    -0.13900
F873        F  0.24060645  0.08285782  0.30119404    -0.16200
F874        F  0.15767480  0.09148137  0.31546329    -0.14700
F875        F  0.16226000  0.08828966  0.24112274    -0.14700
F876        F  0.22097764  0.18902025  0.25228186    -0.16100
C877        C  0.39574831  0.84338749  0.08863591     0.13900
C878        C  0.40359222  0.86215954  0.06445058     0.00900
C879        C  0.39349470  0.87764285  0.06463997     0.15900
C880        C  0.37637520  0.87494542  0.08964437     0.25300
C881        C  0.36963381  0.85705507  0.11516822    -0.41100
C882        C  0.37897890  0.84085402  0.11377843     0.32300
C883        C  0.42377323  0.86642322  0.04108308     0.01000
F884        F  0.40072453  0.89572561  0.04115583    -0.13400
F885        F  0.37233133  0.82283946  0.13727726    -0.13900
C886        C  0.42004319  0.84869045  0.01666818     0.15900
C887        C  0.44017820  0.84990822  0.99958842     0.25300
C888        C  0.46444742  0.86875857  0.00703237    -0.41000
C889        C  0.46792486  0.88756927  0.02962800     0.32200
C890        C  0.44769418  0.88632694  0.04661443     0.14000
F891        F  0.39698302  0.82950275  0.01067111    -0.13400
F892        F  0.49098829  0.90609813  0.03734429    -0.13900
F893        F  0.43597791  0.83209107  0.97669075    -0.16200
F894        F  0.45165625  0.90349164  0.07047014    -0.14700
F895        F  0.40535186  0.82825770  0.08892140    -0.14700
F896        F  0.36748372  0.89065195  0.08991627    -0.16100
C897        C  0.45380149  0.86412997  0.35241484     0.13900
C898        C  0.46287752  0.86944076  0.31920421     0.00900
C899        C  0.48496949  0.86988871  0.31127135     0.15900
C900        C  0.49800461  0.86538426  0.33652699     0.25300
C901        C  0.48895130  0.86011415  0.37006743    -0.41100
C902        C  0.46651320  0.85942676  0.37750009     0.32300
C903        C  0.44790258  0.87287867  0.29317425     0.01000
F904        F  0.49395383  0.87482075  0.27917283    -0.13400
F905        F  0.45676621  0.85447490  0.40921722    -0.13900
C906        C  0.44480252  0.89346354  0.29460477     0.15900
C907        C  0.42536636  0.89349813  0.27714688     0.25300
C908        C  0.40842864  0.87266831  0.25836943    -0.41000
C909        C  0.41332577  0.85324371  0.25412861     0.32200
C910        C  0.43287126  0.85337211  0.27145260     0.14000
F911        F  0.45966835  0.91287364  0.31471420    -0.13400
F912        F  0.39850794  0.83349704  0.23452068    -0.13900
F913        F  0.42225547  0.91324152  0.28058235    -0.16200
F914        F  0.43588517  0.83351374  0.26917005    -0.14700
F915        F  0.43219879  0.86310475  0.36046090    -0.14700
F916        F  0.51929204  0.86595661  0.32803233    -0.16100
C917        C  0.26895970  0.90122991  0.30050750     0.13900
C918        C  0.26501439  0.91898893  0.28503410     0.00900
C919        C  0.27353559  0.92638091  0.25163008     0.15900
C920        C  0.28676354  0.91692860  0.23467250     0.25300
C921        C  0.29167757  0.89993784  0.25089385    -0.41100
C922        C  0.28205047  0.89180542  0.28368992     0.32300
C923        C  0.25288391  0.93036785  0.30439464     0.01000
F924        F  0.27010099  0.94365019  0.23606368    -0.13400
F925        F  0.28555023  0.87479925  0.29981723    -0.13900
C926        C  0.26343163  0.94328445  0.33470352     0.15900
C927        C  0.25271339  0.95503646  0.35219711     0.25300
C928        C  0.23133320  0.95415906  0.33958705    -0.41000
C929        C  0.22022370  0.94035132  0.31009414     0.32200
C930        C  0.23086308  0.92854967  0.29271582     0.14000
F931        F  0.28484655  0.94555620  0.34643414    -0.13400
F932        F  0.19925267  0.93875142  0.29768986    -0.13900
F933        F  0.26422736  0.96873431  0.38000622    -0.16200
F934        F  0.21976437  0.91550065  0.26428327    -0.14700
F935        F  0.26028902  0.89313781  0.33223180    -0.14700
F936        F  0.29595736  0.92547206  0.20329318    -0.16100
C937        C  0.40319823  0.02212531  0.11338792     0.13900
C938        C  0.42019313  0.01469256  0.12203689     0.00900
C939        C  0.44429528  0.02778761  0.10846943     0.15900
C940        C  0.45140054  0.04838679  0.08748856     0.25300
C941        C  0.43453301  0.05623924  0.07984404    -0.41100
C942        C  0.41025132  0.04260845  0.09271376     0.32300
C943        C  0.41193934  0.99256815  0.14389236     0.01000
F944        F  0.46118081  0.02113478  0.11646990    -0.13400
F945        F  0.39321147  0.04924965  0.08547819    -0.13900
C946        C  0.41185126  0.97169341  0.13109368     0.15900
C947        C  0.39950648  0.94928346  0.14851420     0.25300
C948        C  0.38703965  0.94725408  0.17916735    -0.41000
C949        C  0.38902117  0.96861039  0.19353793     0.32200
C950        C  0.40126660  0.99106501  0.17595875     0.14000
F951        F  0.42212414  0.97250412  0.10046399    -0.13400
F952        F  0.37744212  0.96735577  0.22319619    -0.13900
F953        F  0.39884291  0.92920562  0.13466600    -0.16200
F954        F  0.40168087  0.01111702  0.18948006    -0.14700
F955        F  0.37952507  0.00933991  0.12479420    -0.14700
F956        F  0.47506095  0.06137342  0.07618216    -0.16100
C957        C  0.91895248  0.78960801  0.23154504     0.13900
C958        C  0.92593717  0.79700241  0.26526752     0.00900
C959        C  0.95079464  0.80599303  0.27460721     0.15900
C960        C  0.96846829  0.80866361  0.25024768     0.25300
C961        C  0.96156502  0.80260563  0.21616936    -0.41100
C962        C  0.93650052  0.79238099  0.20738076     0.32300
C963        C  0.90761539  0.79738611  0.28923628     0.01000
F964        F  0.95802074  0.81262647  0.30716645    -0.13400
F965        F  0.92898981  0.78539104  0.17495841    -0.13900
C966        C  0.88437599  0.77623179  0.29449466     0.15900
C967        C  0.86563178  0.77765257  0.31209943     0.25300
C968        C  0.86965179  0.80034268  0.32500543    -0.41000
C969        C  0.89346558  0.82119013  0.32140276     0.32200
C970        C  0.91212837  0.81970636  0.30370328     0.14000
F971        F  0.87958281  0.75420409  0.28174866    -0.13400
F972        F  0.89858795  0.84337918  0.33385762    -0.13900
F973        F  0.84330232  0.75683910  0.31548292    -0.16200
F974        F  0.93423680  0.84054137  0.29893196    -0.14700
F975        F  0.89526313  0.78090164  0.22143439    -0.14700
F976        F  0.99244435  0.81837018  0.25959945    -0.16100
C977        C  0.89201445  0.77776059  0.04289265     0.13900
C978        C  0.88989899  0.79890724  0.04482502     0.00900
C979        C  0.90635078  0.81856724  0.06535245     0.15900
C980        C  0.92601332  0.81811528  0.08127692     0.25300
C981        C  0.92964808  0.79790550  0.07690949    -0.41100
C982        C  0.91164123  0.77715278  0.05902166     0.32300
C983        C  0.87482732  0.79642882  0.51787080     0.01000
F984        F  0.90427730  0.83896702  0.06807479    -0.13400
F985        F  0.91386857  0.75691709  0.05514623    -0.13900
C986        C  0.85654478  0.80175592  0.52867177     0.15900
C987        C  0.84163544  0.80495265  0.50487543     0.25300
C988        C  0.84505347  0.80316362  0.46994377    -0.41000
C989        C  0.86258550  0.79668401  0.45953636     0.32200
C990        C  0.87731167  0.79352336  0.48309715     0.14000
F991        F  0.85336695  0.80415052  0.56219069    -0.13400
F992        F  0.86571538  0.79357133  0.42620363    -0.13900
F993        F  0.82469236  0.81079101  0.51590933    -0.16200
F994        F  0.91111245  0.83176674  0.99107074    -0.14700
F995        F  0.88044247  0.75434623  0.52506290    -0.14700
F996        F  0.94205544  0.83798044  0.09981995    -0.16100
C997        C  0.05372328  0.85315604  0.97580449     0.13900
C998        C  0.07652222  0.87297520  0.98704054     0.00900
C999        C  0.08039980  0.87695213  0.02207335     0.15900
C1000       C  0.06195158  0.86226997  0.04520094     0.25300
C1001       C  0.03863265  0.84327575  0.03420819    -0.41100
C1002       C  0.03497541  0.83834412  0.99920839     0.32300
C1003       C  0.09428353  0.89122112  0.45959228     0.01000
F1004       F  0.10190364  0.89585482  0.03416321    -0.13400
F1005       F  0.01314849  0.81968381  0.98758385    -0.13900
C1006       C  0.08958491  0.90556855  0.43695981     0.15900
C1007       C  0.10913715  0.92530942  0.41976339     0.25300
C1008       C  0.13384963  0.93117204  0.42503481    -0.41000
C1009       C  0.13817644  0.91543789  0.44551813     0.32200
C1010       C  0.11861151  0.89574781  0.46263768     0.14000
F1011       F  0.06662126  0.89849918  0.93498628    -0.13400
F1012       F  0.16151206  0.91998766  0.45086641    -0.13900
F1013       F  0.10389310  0.93921215  0.39889417    -0.16200
F1014       F  0.12361042  0.88190924  0.48395540    -0.14700
F1015       F  0.04866101  0.84692155  0.44186845    -0.14700
F1016       F  0.06715124  0.86675543  0.07872419    -0.16100
C1017       C  0.09026879  0.91097465  0.18558027     0.13900
C1018       C  0.10638679  0.90783774  0.20687104     0.00900
C1019       C  0.10433841  0.88460078  0.20888239     0.15900
C1020       C  0.08523239  0.86433016  0.19192519     0.25300
C1021       C  0.06777960  0.86701601  0.17270841    -0.41100
C1022       C  0.07126820  0.89083284  0.16847749     0.32300
C1023       C  0.12238945  0.92755805  0.23101360     0.01000
F1024       F  0.11979330  0.88118427  0.22924430    -0.13400
F1025       F  0.05580272  0.89459082  0.14858727    -0.13900
C1026       C  0.11134336  0.93261056  0.25837218     0.15900
C1027       C  0.12579650  0.94980531  0.28298706     0.25300
C1028       C  0.15185534  0.96265411  0.28072278    -0.41000
C1029       C  0.16293160  0.95802355  0.25268549     0.32200
C1030       C  0.14828641  0.94046726  0.22815417     0.14000
F1031       F  0.08636266  0.92017732  0.26186503    -0.13400
F1032       F  0.18790683  0.96971935  0.24965023    -0.13900
F1033       F  0.11411238  0.95358883  0.30930924    -0.16200
F1034       F  0.15934232  0.93587615  0.20182505    -0.14700
F1035       F  0.09227624  0.93340572  0.18261296    -0.14700
F1036       F  0.08288246  0.84186053  0.19623676    -0.16100
C1037       C  0.07245899  0.72672990  0.99040163     0.13900
C1038       C  0.08526752  0.74340616  0.01695786     0.00900
C1039       C  0.10994169  0.74992016  0.02309786     0.15900
C1040       C  0.12086863  0.73863457  0.00498515     0.25300
C1041       C  0.10905361  0.72442765  0.47736569    -0.41100
C1042       C  0.08357115  0.71572597  0.97193407     0.32300
C1043       C  0.07268031  0.75347497  0.03854163     0.01000
F1044       F  0.12324715  0.76667779  0.04740922    -0.13400
F1045       F  0.07189707  0.70535558  0.44466212    -0.13900
C1046       C  0.07120138  0.75063366  0.07415196     0.15900
C1047       C  0.05789951  0.75881068  0.09388261     0.25300
C1048       C  0.04577597  0.76993494  0.07837173    -0.41000
C1049       C  0.04817076  0.77352771  0.04287207     0.32200
C1050       C  0.06133064  0.76539303  0.02337911     0.14000
F1051       F  0.08169870  0.73893010  0.08970051    -0.13400
F1052       F  0.03750776  0.78484436  0.02665059    -0.13900
F1053       F  0.05585187  0.75469783  0.12778238    -0.16200
F1054       F  0.06291465  0.76915736  0.98938714    -0.14700
F1055       F  0.04850728  0.71967243  0.98395405    -0.14700
F1056       F  0.14564393  0.74454136  0.51138347    -0.16100
C1057       C  0.18946743  0.72629918  0.11177264     0.13900
C1058       C  0.21085441  0.74789060  0.10112759     0.00900
C1059       C  0.21651082  0.75145739  0.06648677     0.15900
C1060       C  0.20144399  0.73378371  0.04284937     0.25300
C1061       C  0.18023979  0.71184588  0.05322133    -0.41100
C1062       C  0.17412177  0.70846845  0.08793467     0.32300
C1063       C  0.22819111  0.76664733  0.12547520     0.01000
F1064       F  0.23718948  0.77195102  0.05551961    -0.13400
F1065       F  0.15376147  0.68768881  0.09890415    -0.13900
C1066       C  0.24257429  0.76125247  0.14713882     0.15900
C1067       C  0.26262724  0.78015384  0.16466347     0.25300
C1068       C  0.26861108  0.80488842  0.16097702    -0.41000
C1069       C  0.25315836  0.80995145  0.14080642     0.32200
C1070       C  0.23321242  0.79103043  0.12325477     0.14000
F1071       F  0.23822844  0.73787788  0.14956961    -0.13400
F1072       F  0.25824096  0.83341767  0.13614298    -0.13900
F1073       F  0.27669124  0.77427568  0.18426623    -0.16200
F1074       F  0.21946960  0.79667755  0.10261017    -0.14700
F1075       F  0.18349848  0.72251961  0.14514724    -0.14700
F1076       F  0.20765562  0.73833009  0.00958837    -0.16100
C1077       C  0.27741968  0.77930538  0.32651061     0.13900
C1078       C  0.26846110  0.78854396  0.35171278     0.00900
C1079       C  0.27907416  0.81418101  0.35505298     0.15900
C1080       C  0.29761901  0.83024730  0.33248283     0.25300
C1081       C  0.30526724  0.82083479  0.30564014    -0.41100
C1082       C  0.29556933  0.79519383  0.30379646     0.32300
C1083       C  0.24729553  0.77104400  0.37310950     0.01000
F1084       F  0.27119386  0.82359598  0.37982460    -0.13400
F1085       F  0.30328712  0.78533073  0.27940987    -0.13900
C1086       C  0.24954244  0.75434630  0.39421079     0.15900
C1087       C  0.22882912  0.73551693  0.41072249     0.25300
C1088       C  0.20518880  0.73277169  0.40627612    -0.41000
C1089       C  0.20319874  0.75015375  0.38592690     0.32200
C1090       C  0.22404698  0.76907396  0.36960824     0.14000
F1091       F  0.27183507  0.75594873  0.39818490    -0.13400
F1092       F  0.18095070  0.74839418  0.38063496    -0.13900
F1093       F  0.23197771  0.71965819  0.43045097    -0.16200
F1094       F  0.22127762  0.78471535  0.34887736    -0.14700
F1095       F  0.26768669  0.75466794  0.32283109    -0.14700
F1096       F  0.30728336  0.85485091  0.33607850    -0.16100
C1097       C  0.93276128  0.67766283  0.16545069     0.13900
C1098       C  0.92589804  0.67774343  0.19949649     0.00900
C1099       C  0.93078487  0.70012277  0.21409033     0.15900
C1100       C  0.94379409  0.72216055  0.19596661     0.25300
C1101       C  0.95190043  0.72228133  0.16259288    -0.41100
C1102       C  0.94554528  0.69975840  0.14710390     0.32300
C1103       C  0.91509887  0.65490781  0.22046340     0.01000
F1104       F  0.92331215  0.70066422  0.24622799    -0.13400
F1105       F  0.95326262  0.69933579  0.11509277    -0.13900
C1106       C  0.92742097  0.65389023  0.24975597     0.15900
C1107       C  0.91821702  0.63199080  0.26844601     0.25300
C1108       C  0.89656707  0.61068894  0.25815030    -0.41000
C1109       C  0.88386109  0.61194824  0.22947347     0.32200
C1110       C  0.89298403  0.63380283  0.21087743     0.14000
F1111       F  0.94921808  0.67373955  0.25909107    -0.13400
F1112       F  0.86286967  0.59166946  0.21888646    -0.13900
F1113       F  0.93149005  0.63108369  0.29496023    -0.16200
F1114       F  0.88042080  0.63423413  0.18314266    -0.14700
F1115       F  0.92836442  0.65637950  0.15056960    -0.14700
F1116       F  0.94893010  0.74354879  0.21132654    -0.16100
C1117       C  0.77970467  0.51773762  0.18265288     0.13900
C1118       C  0.79071463  0.53413842  0.15560433     0.00900
C1119       C  0.81653303  0.54650818  0.15183589     0.15900
C1120       C  0.83111788  0.54230000  0.17483021     0.25300
C1121       C  0.82002690  0.52586150  0.20212904    -0.41100
C1122       C  0.79405941  0.51352016  0.20549819     0.32300
C1123       C  0.77449705  0.53699413  0.13106576     0.01000
F1124       F  0.82754732  0.56244518  0.12580231    -0.13400
F1125       F  0.78231063  0.49720192  0.23096140    -0.13900
C1126       C  0.77334458  0.55870094  0.12966422     0.15900
C1127       C  0.75402445  0.55908956  0.11215639     0.25300
C1128       C  0.73551564  0.53763836  0.09600643    -0.41000
C1129       C  0.73817868  0.51666929  0.09519060     0.32200
C1130       C  0.75736040  0.51637910  0.11261913     0.14000
F1131       F  0.78993011  0.57895937  0.14708220    -0.13400
F1132       F  0.72166615  0.49592383  0.07859546    -0.13900
F1133       F  0.75277820  0.58000794  0.11263019    -0.16200
F1134       F  0.75845344  0.49536802  0.11306974    -0.14700
F1135       F  0.75481239  0.50586217  0.18713018    -0.14700
F1136       F  0.85603567  0.55472282  0.17080840    -0.16100
C1137       C  0.75859011  0.51478426  0.36754147     0.13900
C1138       C  0.76350176  0.53634458  0.38470227     0.00900
C1139       C  0.78718464  0.55724428  0.38197744     0.15900
C1140       C  0.80599882  0.55623569  0.36400246     0.25300
C1141       C  0.80156776  0.53415250  0.34839323    -0.41100
C1142       C  0.77735238  0.51366090  0.34961117     0.32300
C1143       C  0.74505607  0.53591722  0.40897727     0.01000
F1144       F  0.79231576  0.57850288  0.39771614    -0.13400
F1145       F  0.77185756  0.49214567  0.33437224    -0.13900
C1146       C  0.75074633  0.53917970  0.44364644     0.15900
C1147       C  0.73297273  0.53629392  0.46746768     0.25300
C1148       C  0.70898509  0.53021411  0.45726386    -0.41000
C1149       C  0.70352888  0.52800639  0.42242842     0.32200
C1150       C  0.72136953  0.53059128  0.39847384     0.14000
F1151       F  0.77336826  0.54425066  0.45464415    -0.13400
F1152       F  0.68070912  0.52240681  0.41167310    -0.13900
F1153       F  0.70770698  0.49036102  0.98087534    -0.16200
F1154       F  0.71548060  0.52769189  0.36507340    -0.14700
F1155       F  0.73592855  0.49427477  0.36982971    -0.14700
F1156       F  0.82878214  0.57667680  0.36314339    -0.16100
C1157       C  0.96792058  0.56320825  0.37775214     0.13900
C1158       C  0.98993599  0.58186402  0.36341612     0.00900
C1159       C  0.98954417  0.58902633  0.32964555     0.15900
C1160       C  0.96718999  0.57899677  0.31155100     0.25300
C1161       C  0.94489256  0.56166732  0.32695779    -0.41100
C1162       C  0.94570638  0.55324691  0.35980142     0.32300
C1163       C  0.01287693  0.59474712  0.38427917     0.01000
F1164       F  0.01056486  0.60685446  0.31489648    -0.13400
F1165       F  0.92468450  0.53586702  0.37513099    -0.13900
C1166       C  0.03474271  0.59580243  0.37347625     0.15900
C1167       C  0.05679040  0.60975776  0.39140936     0.25300
C1168       C  0.05755664  0.62298180  0.42076373    -0.41000
C1169       C  0.03536224  0.62073497  0.43277985     0.32200
C1170       C  0.01324985  0.60683255  0.41461636     0.14000
F1171       F  0.03480630  0.58344450  0.34529414    -0.13400
F1172       F  0.03531369  0.63318828  0.46084608    -0.13900
F1173       F  0.07760864  0.61062545  0.37967868    -0.16200
F1174       F  0.99242039  0.60621010  0.42575076    -0.14700
F1175       F  0.96781630  0.55499636  0.40957335    -0.14700
F1176       F  0.96711602  0.58760538  0.28008113    -0.16100
C1177       C  0.76533303  0.21283262  0.38393193     0.13900
C1178       C  0.77027282  0.23709257  0.38015130     0.00900
C1179       C  0.75664419  0.24210004  0.35662806     0.15900
C1180       C  0.73756066  0.22305383  0.33826166     0.25300
C1181       C  0.73159017  0.19847750  0.34315233    -0.41100
C1182       C  0.74618809  0.19363851  0.36550693     0.32300
C1183       C  0.78816934  0.25702474  0.40245693     0.01000
F1184       F  0.76144897  0.26549514  0.35215705    -0.13400
F1185       F  0.74104820  0.17024652  0.37109794    -0.13900
C1186       C  0.81357085  0.26548263  0.40037347     0.15900
C1187       C  0.83029431  0.28474420  0.42123024     0.25300
C1188       C  0.82175245  0.29532654  0.44540843    -0.41000
C1189       C  0.79620297  0.28704828  0.44666994     0.32200
C1190       C  0.77968944  0.26814444  0.42545513     0.14000
F1191       F  0.82217617  0.25518374  0.37795115    -0.13400
F1192       F  0.78777246  0.29239693  0.97589256    -0.13900
F1193       F  0.85479217  0.29293163  0.41769684    -0.16200
F1194       F  0.75516501  0.26017630  0.42801225    -0.14700
F1195       F  0.77811001  0.20753941  0.40687384    -0.14700
F1196       F  0.72455388  0.22871453  0.31621355    -0.16100
C1197       C  0.72003868  0.18563458  0.14388227     0.13900
C1198       C  0.73292121  0.21140399  0.14717660     0.00900
C1199       C  0.72686586  0.22203132  0.17399396     0.15900
C1200       C  0.70912646  0.20729862  0.19805303     0.25300
C1201       C  0.69694766  0.18136536  0.19605247    -0.41100
C1202       C  0.70201660  0.17071199  0.16793368     0.32300
C1203       C  0.75411478  0.22758715  0.12480004     0.01000
F1204       F  0.73899886  0.24686315  0.17770117    -0.13400
F1205       F  0.69040170  0.14589922  0.16446818    -0.13900
C1206       C  0.75158046  0.24164359  0.09920847     0.15900
C1207       C  0.77251952  0.26044231  0.08272898     0.25300
C1208       C  0.79653971  0.26580822  0.09196188    -0.41000
C1209       C  0.79873307  0.25046846  0.11610106     0.32200
C1210       C  0.77777835  0.23167051  0.13233154     0.14000
F1211       F  0.72883261  0.23775816  0.09109727    -0.13400
F1212       F  0.82125272  0.25400320  0.12481652    -0.13900
F1213       F  0.76922820  0.27404027  0.05887235    -0.16200
F1214       F  0.78070913  0.21822867  0.15681239    -0.14700
F1215       F  0.72537501  0.17493738  0.11788506    -0.14700
F1216       F  0.70425761  0.21858632  0.22377595    -0.16100
C1217       C  0.84424477  0.39394305  0.15838762     0.13900
C1218       C  0.86575632  0.40803115  0.17751229     0.00900
C1219       C  0.88488915  0.40249800  0.17546912     0.15900
C1220       C  0.88267126  0.38351197  0.15415771     0.25300
C1221       C  0.86131664  0.36978854  0.13422599    -0.41100
C1222       C  0.84193378  0.37503153  0.13728685     0.32300
C1223       C  0.86790925  0.42857094  0.19899724     0.01000
F1224       F  0.90575243  0.41552036  0.19407334    -0.13400
F1225       F  0.82064861  0.36207942  0.11947218    -0.13900
C1226       C  0.85008465  0.42390092  0.22407550     0.15900
C1227       C  0.84993766  0.44330039  0.24135141     0.25300
C1228       C  0.86779281  0.46791904  0.23423345    -0.41000
C1229       C  0.88633552  0.47256514  0.21016054     0.32200
C1230       C  0.88629724  0.45309000  0.19262226     0.14000
F1231       F  0.83247512  0.40041872  0.23144558    -0.13400
F1232       F  0.90372813  0.49600866  0.20218948    -0.13900
F1233       F  0.83214058  0.43792113  0.26497072    -0.16200
F1234       F  0.90345856  0.45829077  0.16808474    -0.14700
F1235       F  0.82562024  0.39907042  0.15924352    -0.14700
F1236       F  0.90175773  0.37913028  0.15233355    -0.16100
C1237       C  0.86221946  0.43069347  0.47735543     0.13900
C1238       C  0.87392371  0.43802681  0.44573385     0.00900
C1239       C  0.88716993  0.42702542  0.43345419     0.15900
C1240       C  0.88767707  0.40817333  0.45166925     0.25300
C1241       C  0.87486603  0.39980669  0.48268081    -0.41100
C1242       C  0.86266208  0.41184663  0.49568724     0.32300
C1243       C  0.86936524  0.45437912  0.42345518     0.01000
F1244       F  0.89874068  0.43383953  0.40295535    -0.13400
F1245       F  0.84987399  0.40289408  0.02523331    -0.13900
C1246       C  0.87722979  0.47895607  0.43210667     0.15900
C1247       C  0.87243533  0.49383361  0.41040397     0.25300
C1248       C  0.85956086  0.48427247  0.37970774    -0.41000
C1249       C  0.85112919  0.45929514  0.37197610     0.32200
C1250       C  0.85608699  0.44473932  0.39341534     0.14000
F1251       F  0.89004479  0.48868795  0.46116429    -0.13400
F1252       F  0.83808500  0.44863334  0.34334629    -0.13900
F1253       F  0.88079110  0.51760021  0.41918259    -0.16200
F1254       F  0.84759556  0.42088387  0.38487521    -0.14700
F1255       F  0.84886814  0.44063124  0.48946449    -0.14700
F1256       F  0.89959720  0.39724557  0.43780648    -0.16100
C1257       C  0.88507884  0.25040880  0.46261277     0.13900
C1258       C  0.90488298  0.24804948  0.47459675     0.00900
C1259       C  0.91483853  0.25762130  0.50679304     0.15900
C1260       C  0.90840880  0.27099698  0.02737793     0.25300
C1261       C  0.88860842  0.27330739  0.01548206    -0.41100
C1262       C  0.87636586  0.26328874  0.48155271     0.32300
C1263       C  0.91651907  0.23745816  0.45265609     0.01000
F1264       F  0.93419009  0.25590707  0.51889891    -0.13400
F1265       F  0.85861636  0.26471758  0.97215950    -0.13900
C1266       C  0.92686481  0.24823623  0.42110090     0.15900
C1267       C  0.94092383  0.24054423  0.40261741     0.25300
C1268       C  0.94514382  0.22222704  0.41565603    -0.41000
C1269       C  0.93339048  0.21035059  0.44606746     0.32200
C1270       C  0.91915001  0.21783610  0.46428945     0.14000
F1271       F  0.92486987  0.26742234  0.40933139    -0.13400
F1272       F  0.93647841  0.19204111  0.45883063    -0.13900
F1273       F  0.95211593  0.25244046  0.37350977    -0.16200
F1274       F  0.90858281  0.20645863  0.49394480    -0.14700
F1275       F  0.87485203  0.24110777  0.43193610    -0.14700
F1276       F  0.92021145  0.28252291  0.05635988    -0.16100
C1277       C  0.08630043  0.21419141  0.27459753     0.13900
C1278       C  0.08131602  0.21255535  0.23979375     0.00900
C1279       C  0.05823674  0.20870010  0.22886060     0.15900
C1280       C  0.03995942  0.20524013  0.25258280     0.25300
C1281       C  0.04444296  0.20511421  0.28748940    -0.41100
C1282       C  0.06818217  0.21062717  0.29813567     0.32300
C1283       C  0.09944755  0.21223625  0.21584818     0.01000
F1284       F  0.05326262  0.20772945  0.19527158    -0.13400
F1285       F  0.07386122  0.21224300  0.33157859    -0.13900
C1286       C  0.09369865  0.19031156  0.19910000     0.15900
C1287       C  0.11216414  0.18791613  0.18254805     0.25300
C1288       C  0.13691100  0.20748870  0.18242446    -0.41000
C1289       C  0.14219898  0.23008365  0.19713633     0.32200
C1290       C  0.12366980  0.23233785  0.21385825     0.14000
F1291       F  0.07046755  0.17056473  0.20079029    -0.13400
F1292       F  0.16551189  0.24974458  0.19679630    -0.13900
F1293       F  0.10584161  0.16604229  0.16773953    -0.16200
F1294       F  0.12959142  0.25386875  0.22942363    -0.14700
F1295       F  0.10838855  0.21790832  0.28592988    -0.14700
F1296       F  0.01764179  0.20092191  0.24140877    -0.16100
C1297       C  0.10194817  0.22474600  0.47265987     0.13900
C1298       C  0.10951393  0.20801264  0.46291597     0.00900
C1299       C  0.09878353  0.19331213  0.43416983     0.15900
C1300       C  0.07936388  0.19379623  0.41723807     0.25300
C1301       C  0.07037737  0.20911401  0.42867087    -0.41100
C1302       C  0.08267021  0.22542248  0.45558624     0.32300
C1303       C  0.13016466  0.20606365  0.99029938     0.01000
F1304       F  0.10580362  0.17710297  0.42406535    -0.13400
F1305       F  0.07473266  0.24057054  0.46723769    -0.13900
C1306       C  0.12809273  0.21034255  0.02472667     0.15900
C1307       C  0.14137253  0.20584296  0.04925932     0.25300
C1308       C  0.15735868  0.19709597  0.04008188    -0.41000
C1309       C  0.16026880  0.19369341  0.00549718     0.32200
C1310       C  0.14889860  0.20809097  0.47855995     0.14000
F1311       F  0.11214416  0.21775970  0.03489132    -0.13400
F1312       F  0.18631718  0.20946065  0.49418554    -0.13900
F1313       F  0.13842858  0.20998979  0.08224660    -0.16200
F1314       F  0.15926836  0.21876471  0.44848923    -0.14700
F1315       F  0.12884074  0.25024510  0.97650976    -0.14700
F1316       F  0.06862593  0.17846141  0.39050055    -0.16100
C1317       C  0.94076535  0.14039614  0.01707252     0.13900
C1318       C  0.92732864  0.12015994  0.51381986     0.00900
C1319       C  0.92805314  0.11103179  0.48171753     0.15900
C1320       C  0.94592899  0.12597241  0.45800906     0.25300
C1321       C  0.96358046  0.15065756  0.46583620    -0.41100
C1322       C  0.96307655  0.15957525  0.49852224     0.32300
C1323       C  0.90249886  0.09970411  0.02815332     0.01000
F1324       F  0.91112085  0.08753695  0.47316752    -0.13400
F1325       F  0.97755265  0.17866561  0.00777709    -0.13900
C1326       C  0.87966486  0.09883765  0.02946716     0.15900
C1327       C  0.86005030  0.08069317  0.04870775     0.25300
C1328       C  0.86298188  0.06296775  0.06674488    -0.41000
C1329       C  0.88627155  0.06445620  0.06577436     0.32200
C1330       C  0.90568209  0.08253575  0.04660339     0.14000
F1331       F  0.87617395  0.11512389  0.01126589    -0.13400
F1332       F  0.89032681  0.04812030  0.08289736    -0.13900
F1333       F  0.83803952  0.08000067  0.04863073    -0.16200
F1334       F  0.93503948  0.09758611  0.57128573    -0.14700
F1335       F  0.93952755  0.14769866  0.04900719    -0.14700
F1336       F  0.94542284  0.11624616  0.42709687    -0.16100
C1337       C  0.89839730  0.11893023  0.28681449     0.13900
C1338       C  0.89682094  0.09587389  0.28648263     0.00900
C1339       C  0.91404568  0.09264163  0.30507847     0.15900
C1340       C  0.93336469  0.11244319  0.32225536     0.25300
C1341       C  0.93605147  0.13609125  0.32086950    -0.41100
C1342       C  0.91776920  0.13886172  0.30391416     0.32300
C1343       C  0.87960256  0.07628804  0.26304759     0.01000
F1344       F  0.91261237  0.07038312  0.30558676    -0.13400
F1345       F  0.91919984  0.16109363  0.30242127    -0.13900
C1346       C  0.88926878  0.07090018  0.23442604     0.15900
C1347       C  0.87368255  0.05312205  0.21120545     0.25300
C1348       C  0.84779244  0.04006397  0.21602417    -0.41000
C1349       C  0.83810318  0.04523146  0.24519252     0.32200
C1350       C  0.85391114  0.06333008  0.26839163     0.14000
F1351       F  0.91400707  0.08336903  0.22852788    -0.13400
F1352       F  0.81337008  0.03324572  0.25096010    -0.13900
F1353       F  0.88416739  0.04883202  0.18387476    -0.16200
F1354       F  0.84419349  0.06818312  0.29607873    -0.14700
F1355       F  0.88201155  0.12250999  0.26885896    -0.14700
F1356       F  0.94970760  0.10846659  0.33965308    -0.16100
C1357       C  0.04357160  0.41877671  0.09548062     0.13900
C1358       C  0.02555861  0.39414214  0.10163160     0.00900
C1359       C  0.03164094  0.37990027  0.12272067     0.15900
C1360       C  0.05434253  0.39077321  0.13999004     0.25300
C1361       C  0.07112935  0.41610646  0.13674626    -0.41100
C1362       C  0.06612609  0.42964505  0.11288555     0.32300
C1363       C  0.99962493  0.38448819  0.08995803     0.01000
F1364       F  0.01499300  0.35576978  0.12805235    -0.13400
F1365       F  0.08259798  0.45385747  0.10785731    -0.13900
C1366       C  0.99358607  0.38260875  0.05533096     0.15900
C1367       C  0.96907796  0.37415950  0.04504269     0.25300
C1368       C  0.95016465  0.36745575  0.06920856    -0.41000
C1369       C  0.95641818  0.36976159  0.10383753     0.32200
C1370       C  0.98081873  0.37825203  0.11403001     0.14000
F1371       F  0.01128582  0.38821959  0.03149535    -0.13400
F1372       F  0.93881475  0.36370992  0.12799346    -0.13900
F1373       F  0.96362000  0.37125475  0.01150613    -0.16200
F1374       F  0.98618268  0.38066600  0.14762194    -0.14700
F1375       F  0.03852862  0.43288788  0.07476745    -0.14700
F1376       F  0.05888223  0.37707109  0.16218769    -0.16100
C1377       C  0.05054177  0.35784524  0.28438544     0.13900
C1378       C  0.06279754  0.35606658  0.31318504     0.00900
C1379       C  0.08375848  0.37735328  0.32526430     0.15900
C1380       C  0.09342084  0.39953488  0.30732379     0.25300
C1381       C  0.08201125  0.40090661  0.27743899    -0.41100
C1382       C  0.05999566  0.38015410  0.26678573     0.32300
C1383       C  0.05532756  0.33159519  0.32816539     0.01000
F1384       F  0.09601277  0.37616700  0.35284408    -0.13400
F1385       F  0.04901736  0.38086243  0.23751715    -0.13900
C1386       C  0.05765030  0.31409355  0.30888766     0.15900
C1387       C  0.04946596  0.29049857  0.32169038     0.25300
C1388       C  0.03863405  0.28374435  0.35413599    -0.41000
C1389       C  0.03748953  0.30170114  0.37416954     0.32200
C1390       C  0.04583453  0.32546053  0.36127790     0.14000
F1391       F  0.06765221  0.31981565  0.27733720    -0.13400
F1392       F  0.02683799  0.29583299  0.40529687    -0.13900
F1393       F  0.05164556  0.27399896  0.30193135    -0.16200
F1394       F  0.04359555  0.34213074  0.38050265    -0.14700
F1395       F  0.03019894  0.33759372  0.27221657    -0.14700
F1396       F  0.11494732  0.41927923  0.31772936    -0.16100
C1397       C  0.19857127  0.43658155  0.31570533     0.13900
C1398       C  0.22216809  0.45681411  0.32214940     0.00900
C1399       C  0.23001867  0.47889774  0.30438992     0.15900
C1400       C  0.21430865  0.48100964  0.28137207     0.25300
C1401       C  0.19064109  0.46089392  0.27509740    -0.41100
C1402       C  0.18298375  0.43854369  0.29211921     0.32300
C1403       C  0.23875703  0.45534040  0.34750497     0.01000
F1404       F  0.25317983  0.49832736  0.30889346    -0.13400
F1405       F  0.16018738  0.41880807  0.28653514    -0.13900
C1406       C  0.24648894  0.43797693  0.34420408     0.15900
C1407       C  0.26445120  0.43871817  0.36601554     0.25300
C1408       C  0.27519240  0.45710269  0.39102360    -0.41000
C1409       C  0.26658548  0.47369187  0.39523794     0.32200
C1410       C  0.24835916  0.47264128  0.37391090     0.14000
F1411       F  0.23774758  0.42125061  0.31866169    -0.13400
F1412       F  0.27613737  0.49124662  0.41969099    -0.13900
F1413       F  0.27250977  0.42254235  0.36116422    -0.16200
F1414       F  0.24045808  0.48896024  0.37850920    -0.14700
F1415       F  0.19044644  0.41512890  0.33274881    -0.14700
F1416       F  0.22258016  0.50248154  0.26431456    -0.16100
C1417       C  0.27474801  0.46833563  0.09458388     0.13900
C1418       C  0.25211662  0.46401362  0.08106211     0.00900
C1419       C  0.24827742  0.46086049  0.04606639     0.15900
C1420       C  0.26692508  0.46281153  0.02466515     0.25300
C1421       C  0.29009695  0.46816969  0.03774315    -0.41100
C1422       C  0.29356979  0.47020436  0.07309470     0.32300
C1423       C  0.23272936  0.46400001  0.10269127     0.01000
F1424       F  0.22660878  0.45669133  0.03242914    -0.13400
F1425       F  0.31535740  0.47479099  0.08675778    -0.13900
C1426       C  0.23636564  0.48609922  0.11659250     0.15900
C1427       C  0.21730458  0.48672892  0.13431046     0.25300
C1428       C  0.19411798  0.46513925  0.13868789    -0.41000
C1429       C  0.19056942  0.44298185  0.12455921     0.32200
C1430       C  0.20967970  0.44248285  0.10668406     0.14000
F1431       F  0.25826234  0.50726321  0.11224105    -0.13400
F1432       F  0.16885607  0.42161161  0.12873476    -0.13900
F1433       F  0.22160297  0.50861023  0.14698172    -0.16200
F1434       F  0.20577186  0.42089554  0.09342124    -0.14700
F1435       F  0.27864791  0.47094159  0.12852177    -0.14700
F1436       F  0.26217482  0.45944074  0.99093452    -0.16100
C1437       C  0.10612599  0.52928198  0.10534078     0.13900
C1438       C  0.12706956  0.55007474  0.09232720     0.00900
C1439       C  0.15068205  0.55566516  0.10344785     0.15900
C1440       C  0.15327155  0.54086192  0.12750558     0.25300
C1441       C  0.13223727  0.52055132  0.14151330    -0.41100
C1442       C  0.10864147  0.51481601  0.12995590     0.32300
C1443       C  0.12443107  0.56671730  0.06850362     0.01000
F1444       F  0.17124710  0.57606096  0.09199428    -0.13400
F1445       F  0.08789314  0.49508209  0.14232089    -0.13900
C1446       C  0.10999724  0.57728654  0.07729849     0.15900
C1447       C  0.11027588  0.59558375  0.05697900     0.25300
C1448       C  0.12551623  0.60398394  0.02822943    -0.41000
C1449       C  0.13875172  0.59244360  0.01837362     0.32200
C1450       C  0.13791889  0.57368631  0.03808377     0.14000
F1451       F  0.09696344  0.57112553  0.10670318    -0.13400
F1452       F  0.15587538  0.60412926  0.49496942    -0.13900
F1453       F  0.09722152  0.60641328  0.06685180    -0.16200
F1454       F  0.15089781  0.56282474  0.02801692    -0.14700
F1455       F  0.08317779  0.52295777  0.09419084    -0.14700
F1456       F  0.17631530  0.54705278  0.13805277    -0.16100
C1457       C  0.11709156  0.54189940  0.31733727     0.13900
C1458       C  0.13970970  0.56398121  0.32142066     0.00900
C1459       C  0.16102704  0.56600852  0.30656865     0.15900
C1460       C  0.15983335  0.54665575  0.28752568     0.25300
C1461       C  0.13717499  0.52453388  0.28272780    -0.41100
C1462       C  0.11579804  0.52233642  0.29824766     0.32300
C1463       C  0.14165018  0.58471376  0.34220879     0.01000
F1464       F  0.18311628  0.58707880  0.31005750    -0.13400
F1465       F  0.09352018  0.50157982  0.29425687    -0.13900
C1466       C  0.15541590  0.59139588  0.37226645     0.15900
C1467       C  0.15814024  0.61121527  0.39171653     0.25300
C1468       C  0.14715647  0.62511534  0.38163769    -0.41000
C1469       C  0.13396314  0.61884605  0.35083968     0.32200
C1470       C  0.13106857  0.59870604  0.33150515     0.14000
F1471       F  0.16610689  0.57845677  0.38306716    -0.13400
F1472       F  0.12355778  0.63192181  0.33959835    -0.13900
F1473       F  0.17174195  0.61675939  0.42052138    -0.16200
F1474       F  0.11821963  0.59306407  0.30204342    -0.14700
F1475       F  0.09627109  0.53921125  0.33208103    -0.14700
F1476       F  0.18106341  0.54982793  0.27352079    -0.16100
O1477       O  0.08781589  0.44531499  0.67627434    -0.80500
C1478       C  0.17336681  0.46253434  0.74532489     0.98800
O1479       O  0.16095814  0.44493645  0.72493146    -0.69700
O1480       O  0.11413407  0.41948130  0.73683510    -0.73200
Al1481     Al  0.13209836  0.43564362  0.69776810     1.49000
C1482       C  0.09617042  0.41904757  0.75159404     0.94100
O1483       O  0.11498835  0.48191781  0.75645334    -0.79500
O1484       O  0.15008664  0.50364659  0.66921573    -0.73000
Al1485     Al  0.10358906  0.46319267  0.71537575     1.90100
O1486       O  0.15087614  0.50937558  0.73722064    -0.72100
O1487       O  0.17833637  0.48320407  0.67619585    -0.71900
O1488       O  0.17237054  0.48217105  0.74412436    -0.77600
O1489       O  0.15094237  0.44748306  0.65684112    -0.75800
O1490       O  0.13178558  0.46340258  0.70665646    -1.11900
O1491       O  0.10289561  0.42087030  0.66946506    -0.71100
C1492       C  0.08774967  0.42768086  0.66134557     0.99600
C1493       C  0.13350210  0.50330070  0.75796502     0.96000
Al1494     Al  0.16030380  0.49202476  0.70666776     1.55600
O1495       O  0.08912252  0.43399902  0.74358581    -0.75800
C1496       C  0.17249971  0.46580165  0.65574147     1.00100
C1497       C  0.13025157  0.50441040  0.66771810     0.95000
O1498       O  0.11253042  0.49194842  0.68808573    -0.81100
O1499       O  0.99746094  0.18818159  0.94667408    -0.80500
C1500       C  0.02743459  0.19811139  0.81486807     0.98800
O1501       O  0.02975455  0.18892120  0.84204628    -0.69700
O1502       O  0.03220636  0.18331905  0.90727876    -0.73200
Al1503     Al  0.00593000  0.17407787  0.87589258     1.49000
C1504       C  0.04880912  0.20388571  0.91795830     0.94100
O1505       O  0.02675260  0.25023003  0.89678242    -0.79500
O1506       O  0.97123694  0.21882073  0.87204398    -0.73000
Al1507     Al  0.01215955  0.21779904  0.91816906     1.90100
O1508       O  0.01736947  0.24145049  0.84320336    -0.72100
O1509       O  0.96187995  0.17788197  0.84217935    -0.71900
O1510       O  0.00950123  0.20208656  0.81099000    -0.77600
O1511       O  0.98032530  0.15657408  0.84347117    -0.75800
O1512       O  0.00311897  0.20077192  0.87967376    -1.11900
O1513       O  0.98211459  0.15808552  0.90936501    -0.71100
C1514       C  0.98180152  0.16598764  0.93860120     0.99600
C1515       C  0.02821940  0.25704190  0.86616044     0.96000
Al1516     Al  0.99097104  0.20928200  0.84495146     1.55600
O1517       O  0.04481676  0.22165921  0.91805372    -0.75800
C1518       C  0.96129148  0.15785855  0.83761660     1.00100
C1519       C  0.96799499  0.21904684  0.90368551     0.95000
O1520       O  0.98180787  0.21639881  0.92411163    -0.81100
O1521       O  0.87460298  0.34526044  0.60379905    -0.80500
C1522       C  0.84008501  0.31193234  0.97451411     0.98800
O1523       O  0.83035843  0.32213408  0.49230230    -0.69700
O1524       O  0.81692064  0.30129304  0.55099991    -0.73200
Al1525     Al  0.83930956  0.33416957  0.53733925     1.49000
C1526       C  0.81857193  0.28951650  0.57551614     0.94100
O1527       O  0.87185172  0.29220859  0.55202757    -0.79500
O1528       O  0.91551941  0.36203253  0.52791486    -0.73000
Al1529     Al  0.87271763  0.31921794  0.57612737     1.90100
O1530       O  0.89378961  0.31384170  0.50828849    -0.72100
O1531       O  0.88479204  0.36566105  0.99222889    -0.71900
O1532       O  0.86203210  0.31640856  0.97708296    -0.77600
O1533       O  0.85665788  0.36741383  0.52317489    -0.75800
O1534       O  0.86618194  0.33104320  0.53877195    -1.11900
O1535       O  0.84320974  0.34683946  0.58220588    -0.71100
C1536       C  0.85984158  0.35348831  0.60446680     0.99600
C1537       C  0.88406480  0.29430991  0.52541996     0.96000
Al1538     Al  0.88647471  0.33940138  0.50282071     1.55600
O1539       O  0.83922389  0.29686337  0.58937015    -0.75800
C1540       C  0.87309521  0.37588831  0.00244455     1.00100
C1541       C  0.92276838  0.35613984  0.55434522     0.95000
O1542       O  0.90763279  0.33825756  0.57221722    -0.81100
O1543       O  0.88991185  0.57194997  0.75502881    -0.80500
C1544       C  0.85869825  0.49813364  0.85362192     0.98800
O1545       O  0.86416774  0.52014032  0.86079373    -0.69700
O1546       O  0.90592751  0.55180156  0.83486670    -0.73200
Al1547     Al  0.87526393  0.54901063  0.83101514     1.49000
C1548       C  0.92239600  0.55512930  0.81404027     0.94100
O1549       O  0.88805254  0.51113357  0.75270122    -0.79500
O1550       O  0.82686619  0.51432288  0.75823175    -0.73000
Al1551     Al  0.88735410  0.54102912  0.75694694     1.90100
O1552       O  0.84859477  0.48636422  0.75865244    -0.72100
O1553       O  0.82115093  0.50980286  0.82435393    -0.71900
O1554       O  0.85042380  0.48932446  0.82471900    -0.77600
O1555       O  0.84479220  0.54891683  0.83307480    -0.75800
O1556       O  0.86758123  0.53117463  0.79315607    -1.11900
O1557       O  0.88889977  0.58098840  0.80837913    -0.71100
C1558       C  0.89231853  0.58717851  0.77737680     0.99600
C1559       C  0.86937704  0.49013079  0.74902167     0.96000
Al1560     Al  0.83927262  0.50253188  0.79164992     1.55600
O1561       O  0.91817051  0.55359214  0.78243801    -0.75800
C1562       C  0.82386251  0.52987702  0.83503351     1.00100
C1563       C  0.83699791  0.52349331  0.73015155     0.95000
O1564       O  0.85982248  0.53073913  0.72520218    -0.81100
O1565       O  0.11751263  0.69158886  0.99597271    -0.80500
C1566       C  0.14717654  0.64112908  0.90727793     0.98800
O1567       O  0.14210985  0.65738730  0.89726257    -0.69700
O1568       O  0.09983723  0.64918719  0.91932043    -0.73200
Al1569     Al  0.13084874  0.67697422  0.92290962     1.49000
C1570       C  0.08233851  0.63921264  0.93998023     0.94100
O1571       O  0.11097790  0.63147623  0.50189204    -0.79500
O1572       O  0.17630011  0.69240826  0.00060809    -0.73000
Al1573     Al  0.11622917  0.66150942  0.99791402     1.90100
O1574       O  0.15171465  0.64228814  0.00305522    -0.72100
O1575       O  0.18428640  0.69085701  0.93566710    -0.71900
O1576       O  0.15378731  0.64128218  0.93746960    -0.77600
O1577       O  0.16183142  0.70656537  0.92060561    -0.75800
O1578       O  0.13688885  0.66845619  0.96309054    -1.11900
O1579       O  0.11744064  0.69706597  0.94111131    -0.71100
C1580       C  0.11508056  0.70266270  0.97132572     0.99600
C1581       C  0.12846932  0.62781684  0.50856455     0.96000
Al1582     Al  0.16421981  0.66688506  0.96877637     1.55600
O1583       O  0.08585637  0.64480180  0.97115433    -0.75800
C1584       C  0.18248343  0.70779609  0.92156027     1.00100
C1585       C  0.16330213  0.69338414  0.52748401     0.95000
O1586       O  0.14008016  0.67880977  0.52974123    -0.81100
O1587       O  0.99280766  0.76553736  0.66952691    -0.80500
C1588       C  0.02170692  0.83075090  0.56163361     0.98800
O1589       O  0.00519304  0.80796059  0.55814852    -0.69700
O1590       O  0.01583980  0.77700550  0.58490709    -0.73200
Al1591     Al  0.98922079  0.78148111  0.59271119     1.49000
C1592       C  0.03386469  0.77915487  0.60133576     0.94100
O1593       O  0.04828555  0.82874704  0.65760894    -0.79500
O1594       O  0.98118979  0.81965864  0.66309544    -0.73000
Al1595     Al  0.01881299  0.79732156  0.66063733     1.90100
O1596       O  0.03000028  0.85000001  0.65472290    -0.72100
O1597       O  0.97462528  0.82094347  0.59728615    -0.71900
O1598       O  0.02372978  0.84192426  0.58916791    -0.77600
O1599       O  0.95894576  0.78165732  0.59444118    -0.75800
O1600       O  0.00352940  0.80274523  0.62646609    -1.11900
O1601       O  0.97238427  0.75247752  0.62191535    -0.71100
C1602       C  0.97523035  0.74903505  0.65288645     0.99600
C1603       C  0.04910773  0.84896784  0.66071705     0.96000
Al1604     Al  0.00249062  0.83056544  0.62614203     1.55600
O1605       O  0.03666901  0.78574131  0.63217812    -0.75800
C1606       C  0.95662632  0.80012999  0.59055535     1.00100
C1607       C  0.98444516  0.81164485  0.69083177     0.95000
O1608       O  0.00235262  0.80748163  0.69474916    -0.81100
O1609       O  0.33175087  0.85732556  0.77985622    -0.80500
C1610       C  0.35378765  0.85734271  0.64527351     0.98800
O1611       O  0.35526186  0.84800369  0.67272679    -0.69700
O1612       O  0.36055695  0.84497139  0.73755305    -0.73200
Al1613     Al  0.33325922  0.83787362  0.70911259     1.49000
C1614       C  0.37891677  0.86471080  0.74747084     0.94100
O1615       O  0.36603655  0.91683550  0.72560605    -0.79500
O1616       O  0.31024540  0.89268714  0.70418472    -0.73000
Al1617     Al  0.34792172  0.88534150  0.74898119     1.90100
O1618       O  0.35510236  0.90714769  0.67262891    -0.72100
O1619       O  0.29298257  0.84894971  0.67511215    -0.71900
O1620       O  0.33892585  0.86547955  0.64235387    -0.77600
O1621       O  0.30519506  0.82225688  0.68009915    -0.75800
O1622       O  0.33536246  0.86714008  0.71165355    -1.11900
O1623       O  0.31136806  0.82574273  0.74552734    -0.71100
C1624       C  0.31548673  0.83489171  0.77484919     0.99600
C1625       C  0.36879525  0.92239775  0.69444208     0.96000
Al1626     Al  0.32511925  0.87766285  0.67665724     1.55600
O1627       O  0.37789229  0.88419738  0.74735942    -0.75800
C1628       C  0.28873745  0.82723260  0.67231850     1.00100
C1629       C  0.30807805  0.89420929  0.73594455     0.95000
O1630       O  0.32026136  0.88899091  0.75611144    -0.81100
O1631       O  0.19323437  0.00552772  0.94620704    -0.80500
C1632       C  0.16672204  0.98341610  0.81201930     0.98800
O1633       O  0.15629101  0.98014485  0.84041260    -0.69700
O1634       O  0.15022499  0.97262647  0.90579110    -0.73200
Al1635     Al  0.16768458  0.00145122  0.87773991     1.49000
C1636       C  0.15476178  0.95605456  0.91474860     0.94100
O1637       O  0.22138799  0.97665348  0.88616400    -0.79500
O1638       O  0.24715208  0.03089030  0.86504368    -0.73000
Al1639     Al  0.20595774  0.99176272  0.91272111     1.90100
O1640       O  0.21799584  0.98611717  0.83383489    -0.72100
O1641       O  0.21684876  0.04508496  0.84252254    -0.71900
O1642       O  0.18914208  0.00015084  0.80820682    -0.77600
O1643       O  0.17735446  0.03006254  0.84989509    -0.75800
O1644       O  0.19670502  0.00254646  0.87707795    -1.11900
O1645       O  0.17688590  0.02264259  0.91512920    -0.71100
C1646       C  0.18536600  0.02053354  0.94305764     0.99600
C1647       C  0.22305534  0.97414862  0.85447769     0.96000
Al1648     Al  0.21611223  0.01458105  0.84062289     1.55600
O1649       O  0.17660700  0.96011908  0.91299198    -0.75800
C1650       C  0.19821867  0.04771736  0.84140257     1.00100
C1651       C  0.25210188  0.03409762  0.89631942     0.95000
O1652       O  0.23593200  0.02144106  0.91793187    -0.81100
O1653       O  0.46335748  0.13758454  0.97612279    -0.80500
C1654       C  0.49062204  0.14285545  0.61273004     0.98800
O1655       O  0.50170227  0.15946021  0.59057437    -0.69700
O1656       O  0.51605178  0.14967847  0.53384172    -0.73200
Al1657     Al  0.49536574  0.16278607  0.54397564     1.49000
C1658       C  0.51515646  0.13707441  0.01268787     0.94100
O1659       O  0.45715511  0.08718412  0.53833880    -0.79500
O1660       O  0.41976455  0.12342420  0.54508695    -0.73000
Al1661     Al  0.46006203  0.11300878  0.50848706     1.90100
O1662       O  0.43236830  0.09114052  0.57363519    -0.72100
O1663       O  0.45145502  0.15739177  0.58796185    -0.71900
O1664       O  0.46790287  0.12687401  0.60927525    -0.77600
O1665       O  0.48082631  0.18220326  0.55425519    -0.75800
O1666       O  0.46699162  0.13400875  0.54284145    -1.11900
O1667       O  0.49327861  0.17034742  0.49759723    -0.71100
C1668       C  0.47837245  0.16051764  0.97420954     0.99600
C1669       C  0.44158101  0.07876839  0.56238569     0.96000
Al1670     Al  0.44482060  0.12556112  0.57609101     1.55600
O1671       O  0.49444077  0.12244855  0.00007168    -0.75800
C1672       C  0.46491324  0.17858023  0.57629799     1.00100
C1673       C  0.41233158  0.10889954  0.51989773     0.95000
O1674       O  0.42520328  0.10016407  0.50872848    -0.81100
O1675       O  0.76352916  0.98499695  0.59083397    -0.80500
C1676       C  0.83402905  0.02287844  0.69507203     0.98800
O1677       O  0.81120068  0.00759108  0.70004402    -0.69700
O1678       O  0.78221164  0.02092251  0.67266406    -0.73200
Al1679     Al  0.78353518  0.99190477  0.66837533     1.49000
C1680       C  0.77937934  0.03396965  0.65119565     0.94100
O1681       O  0.82518246  0.04360048  0.59328341    -0.79500
O1682       O  0.82032243  0.97886126  0.59547065    -0.73000
Al1683     Al  0.79462441  0.01317660  0.59490249     1.90100
O1684       O  0.84924022  0.02845535  0.60109703    -0.72100
O1685       O  0.82115197  0.97459503  0.66116653    -0.71900
O1686       O  0.84373297  0.02427636  0.66656459    -0.77600
O1687       O  0.78204665  0.96083761  0.67018895    -0.75800
O1688       O  0.80280442  0.00216036  0.63145770    -1.11900
O1689       O  0.75223980  0.97496164  0.64371361    -0.71100
C1690       C  0.74729369  0.97230968  0.61231177     0.99600
C1691       C  0.84622644  0.04574467  0.59126704     0.96000
Al1692     Al  0.83102105  0.00158853  0.63117833     1.55600
O1693       O  0.78152726  0.03103848  0.61982521    -0.75800
C1694       C  0.80042730  0.95781494  0.67128441     1.00100
C1695       C  0.81256188  0.98110743  0.56700053     0.95000
O1696       O  0.80548362  0.99669583  0.56273374    -0.81100
O1697       O  0.56721084  0.88738869  0.00339075    -0.80500
C1698       C  0.50117697  0.85275339  0.89365527     0.98800
O1699       O  0.52414179  0.85988969  0.89118615    -0.69700
O1700       O  0.55376271  0.90294154  0.91726973    -0.73200
Al1701     Al  0.55052229  0.87195537  0.92506886     1.49000
C1702       C  0.55572666  0.91956472  0.93687086     0.94100
O1703       O  0.50995762  0.88668061  0.49716614    -0.79500
O1704       O  0.51101226  0.82517232  0.99683497    -0.73000
Al1705     Al  0.54036619  0.88678450  0.49686854     1.90100
O1706       O  0.48277920  0.84620201  0.98738179    -0.72100
O1707       O  0.51068640  0.81805067  0.93187880    -0.71900
O1708       O  0.49007255  0.84602018  0.92180507    -0.77600
O1709       O  0.55043738  0.84147264  0.92722961    -0.75800
O1710       O  0.52978460  0.86479618  0.95983933    -1.11900
O1711       O  0.58041365  0.88571228  0.95258176    -0.71100
C1712       C  0.58390376  0.88903209  0.98424796     0.99600
C1713       C  0.48888315  0.86806157  0.49991111     0.96000
Al1714     Al  0.50115203  0.83642202  0.95961536     1.55600
O1715       O  0.55172122  0.91540940  0.96838870    -0.75800
C1716       C  0.53135289  0.82057472  0.92474252     1.00100
C1717       C  0.52386093  0.83760464  0.52608333     0.95000
O1718       O  0.52987528  0.86010737  0.53025086    -0.81100
O1719       O  0.68085243  0.11575909  0.74812989    -0.80500
C1720       C  0.64639232  0.14868885  0.85724798     0.98800
O1721       O  0.66162035  0.14096729  0.86010158    -0.69700
O1722       O  0.64731949  0.09830405  0.83261495    -0.73200
Al1723     Al  0.67606922  0.12879819  0.82654952     1.49000
C1724       C  0.63381751  0.08179500  0.81199017     0.94100
O1725       O  0.62124591  0.11664132  0.75552087    -0.79500
O1726       O  0.68595688  0.17749966  0.75445419    -0.73000
Al1727     Al  0.65217944  0.11752003  0.75472204     1.90100
O1728       O  0.63595679  0.15581902  0.76368680    -0.72100
O1729       O  0.69273189  0.18332206  0.81991242    -0.71900
O1730       O  0.64310111  0.15593060  0.82900690    -0.77600
O1731       O  0.70709200  0.15852773  0.82608428    -0.75800
O1732       O  0.66413479  0.13705675  0.79100019    -1.11900
O1733       O  0.69241306  0.11472768  0.80004974    -0.71100
C1734       C  0.69457246  0.11285866  0.76837777     0.99600
C1735       C  0.61849320  0.13512318  0.75461965     0.96000
Al1736     Al  0.66440846  0.16556640  0.79162750     1.55600
O1737       O  0.63559631  0.08643052  0.78042353    -0.75800
C1738       C  0.70997289  0.17970117  0.82864251     1.00100
C1739       C  0.68333677  0.16750443  0.72589026     0.95000
O1740       O  0.66726300  0.14480835  0.72192556    -0.81100
O1741       O  0.44625545  0.34585738  0.83514570    -0.80500
C1742       C  0.47657880  0.30992146  0.72907209     0.98800
O1743       O  0.47155935  0.32706709  0.72474968    -0.69700
O1744       O  0.43046962  0.31727566  0.75277188    -0.73200
Al1745     Al  0.46211659  0.34409969  0.75801246     1.49000
C1746       C  0.41462925  0.30120505  0.77190913     0.94100
O1747       O  0.45047128  0.28876376  0.82966394    -0.79500
O1748       O  0.51089720  0.35367419  0.82716993    -0.73000
Al1749     Al  0.45018036  0.31884329  0.82909228     1.90100
O1750       O  0.48975962  0.30414146  0.82199985    -0.72100
O1751       O  0.51614002  0.35761236  0.76075797    -0.71900
O1752       O  0.48609931  0.30819200  0.75638653    -0.77600
O1753       O  0.49299719  0.37388065  0.75750613    -0.75800
O1754       O  0.46977252  0.33123671  0.79299019    -1.11900
O1755       O  0.45083663  0.36239772  0.78508252    -0.71100
C1756       C  0.44656951  0.36203544  0.81647617     0.99600
C1757       C  0.46926642  0.28662088  0.83141348     0.96000
Al1758     Al  0.49812395  0.33092152  0.79170995     1.55600
O1759       O  0.41941768  0.30056405  0.80304449    -0.75800
C1760       C  0.51369312  0.37569624  0.75349893     1.00100
C1761       C  0.50083607  0.35274924  0.85537810     0.95000
O1762       O  0.47822994  0.33630287  0.86086788    -0.81100
O1763       O  0.23592771  0.21876487  0.66671394    -0.80500
C1764       C  0.16708895  0.18853160  0.56073995     0.98800
O1765       O  0.18951702  0.19409174  0.55607213    -0.69700
O1766       O  0.21946168  0.23571821  0.58344834    -0.73200
Al1767     Al  0.21692538  0.20530241  0.58869330     1.49000
C1768       C  0.22246666  0.25196490  0.60431359     0.94100
O1769       O  0.17624692  0.21864516  0.66020510    -0.79500
O1770       O  0.17874814  0.15725466  0.66082376    -0.73000
Al1771     Al  0.20567486  0.21714662  0.66092895     1.90100
O1772       O  0.15084903  0.17946774  0.65506076    -0.72100
O1773       O  0.17741280  0.15130929  0.59493523    -0.71900
O1774       O  0.15683965  0.18032976  0.58907141    -0.77600
O1775       O  0.21703462  0.17508564  0.58833996    -0.75800
O1776       O  0.19730824  0.19750365  0.62485072    -1.11900
O1777       O  0.24793933  0.21898791  0.61450821    -0.71100
C1778       C  0.25239835  0.22157319  0.64612212     0.99600
C1779       C  0.15478676  0.20055707  0.66296083     0.96000
Al1780     Al  0.16843171  0.16946385  0.62495741     1.55600
O1781       O  0.22023051  0.24762770  0.63576615    -0.75800
C1782       C  0.19800512  0.15417009  0.58599260     1.00100
C1783       C  0.18748017  0.16779556  0.68888718     0.95000
O1784       O  0.19325589  0.19008235  0.69338057    -0.81100
O1785       O  0.35986633  0.44568852  0.92066457    -0.80500
C1786       C  0.31226350  0.47516547  0.51382627     0.98800
O1787       O  0.32875066  0.47024924  0.52379636    -0.69700
O1788       O  0.32060282  0.42777043  0.99933759    -0.73200
Al1789     Al  0.34764204  0.45916912  0.99488490     1.49000
C1790       C  0.30945208  0.41057756  0.97864041     0.94100
O1791       O  0.29758939  0.43990103  0.91417606    -0.79500
O1792       O  0.35894642  0.50453729  0.91835862    -0.73000
Al1793     Al  0.32964696  0.44432798  0.92039308     1.90100
O1794       O  0.30877622  0.47862769  0.91802399    -0.72100
O1795       O  0.35891549  0.51162299  0.98442002    -0.71900
O1796       O  0.30918704  0.47917766  0.98418241    -0.77600
O1797       O  0.37875353  0.49238128  0.50069680    -0.75800
O1798       O  0.33722932  0.46470145  0.95561196    -1.11900
O1799       O  0.36820022  0.44715634  0.97477217    -0.71100
C1800       C  0.37261116  0.44453984  0.94414568     0.99600
C1801       C  0.29355268  0.45715955  0.90824983     0.96000
Al1802     Al  0.33424114  0.49122313  0.95162471     1.55600
O1803       O  0.31349426  0.41414503  0.94709476    -0.75800
C1804       C  0.37974550  0.51276841  0.49926319     1.00100
C1805       C  0.35895227  0.49409105  0.89095234     0.95000
O1806       O  0.34507835  0.47094727  0.88726137    -0.81100
O1807       O  0.52323471  0.66737022  0.64171466    -0.80500
C1808       C  0.52033510  0.68710886  0.77757915     0.98800
O1809       O  0.51263272  0.69031879  0.74971998    -0.69700
O1810       O  0.51296859  0.69828581  0.68477273    -0.73200
Al1811     Al  0.50294529  0.66946508  0.71202667     1.49000
C1812       C  0.53385119  0.71550174  0.67537859     0.94100
O1813       O  0.58220790  0.69745719  0.69842682    -0.79500
O1814       O  0.55692446  0.64455221  0.71936185    -0.73000
Al1815     Al  0.55071890  0.68148321  0.67386589     1.90100
O1816       O  0.57062869  0.68897382  0.75144283    -0.72100
O1817       O  0.51210301  0.62758437  0.74522169    -0.71900
O1818       O  0.52793707  0.67189078  0.78005393    -0.77600
O1819       O  0.48579090  0.64048739  0.73949565    -0.75800
O1820       O  0.53165930  0.66999155  0.71057264    -1.11900
O1821       O  0.49053999  0.64854748  0.67451503    -0.71100
C1822       C  0.50042483  0.65172011  0.64578523     0.99600
C1823       C  0.58700738  0.70113095  0.72984801     0.96000
Al1824     Al  0.54108599  0.65910765  0.74594818     1.55600
O1825       O  0.55217052  0.71234789  0.67567647    -0.75800
C1826       C  0.49034828  0.62370988  0.74722661     1.00100
C1827       C  0.55725311  0.64095439  0.68777581     0.95000
O1828       O  0.55155241  0.65237433  0.66705781    -0.81100
O1829       O  0.66554619  0.52728826  0.61540942    -0.80500
C1830       C  0.68819474  0.52263477  0.98034023     0.98800
O1831       O  0.69153261  0.51671492  0.51145435    -0.69700
O1832       O  0.69529217  0.51462983  0.57740944    -0.73200
Al1833     Al  0.66851216  0.50604889  0.54693903     1.49000
C1834       C  0.71371160  0.53519733  0.58444134     0.94100
O1835       O  0.69944043  0.58488723  0.55713209    -0.79500
O1836       O  0.63988190  0.55554647  0.53760431    -0.73000
Al1837     Al  0.68177450  0.55445816  0.58275562     1.90100
O1838       O  0.68539174  0.57351006  0.50568686    -0.72100
O1839       O  0.62558611  0.51136879  0.00620709    -0.71900
O1840       O  0.67284890  0.53006775  0.97533154    -0.77600
O1841       O  0.64165830  0.48831456  0.51637356    -0.75800
O1842       O  0.66911775  0.53466234  0.54691094    -1.11900
O1843       O  0.64549205  0.49456223  0.58248818    -0.71100
C1844       C  0.64806098  0.50522854  0.61062861     0.99600
C1845       C  0.70037757  0.58943518  0.52577483     0.96000
Al1846     Al  0.65727352  0.54261080  0.51112903     1.55600
O1847       O  0.71203645  0.55417049  0.58174584    -0.75800
C1848       C  0.62288487  0.49021519  0.00464514     1.00100
C1849       C  0.63927108  0.55931366  0.56912115     0.95000
O1850       O  0.65416246  0.55795524  0.58895234    -0.81100
O1851       O  0.80947563  0.80584759  0.94475660    -0.80500
C1852       C  0.81536678  0.83495284  0.81383965     0.98800
O1853       O  0.82332065  0.84449793  0.84260398    -0.69700
O1854       O  0.82355513  0.84893703  0.90900139    -0.73200
Al1855     Al  0.83285058  0.83159754  0.87798711     1.49000
C1856       C  0.80290672  0.84637655  0.91666677     0.94100
O1857       O  0.75324749  0.78297561  0.88370789    -0.79500
O1858       O  0.78418470  0.75372237  0.86490375    -0.73000
Al1859     Al  0.78313783  0.79543450  0.91088582     1.90100
O1860       O  0.76602462  0.78053703  0.83313743    -0.72100
O1861       O  0.82788926  0.78466905  0.83933699    -0.71900
O1862       O  0.80862214  0.81238860  0.80832152    -0.77600
O1863       O  0.85169191  0.82365430  0.84750913    -0.75800
O1864       O  0.80408938  0.80345122  0.87608918    -1.11900
O1865       O  0.84333083  0.81966155  0.91369341    -0.71100
C1866       C  0.83216099  0.81190268  0.94166028     0.99600
C1867       C  0.74940805  0.77923199  0.85220778     0.96000
Al1868     Al  0.79723540  0.78438654  0.83959272     1.55600
O1869       O  0.78362312  0.82615683  0.91104903    -0.75800
C1870       C  0.84889251  0.80356939  0.83702960     1.00100
C1871       C  0.77928395  0.74873034  0.89607920     0.95000
O1872       O  0.77944000  0.76426214  0.91617693    -0.81100
C1873       C  0.74282188  0.68084456  0.91720916     0.13900
C1874       C  0.75332210  0.68037374  0.94860732     0.00900
C1875       C  0.77448094  0.70182561  0.95977252     0.15900
C1876       C  0.78406197  0.72363530  0.94101646     0.25300
C1877       C  0.77277562  0.72448174  0.91060143    -0.41100
C1878       C  0.75251126  0.70271804  0.89834006     0.32300
C1879       C  0.74194602  0.65765567  0.96982936     0.01000
F1880       F  0.78570385  0.70171960  0.98910606    -0.13400
F1881       F  0.74100436  0.70304997  0.86942021    -0.13900
C1882       C  0.73917605  0.63569178  0.95671297     0.15900
C1883       C  0.72671580  0.61384519  0.97522078     0.25300
C1884       C  0.71861097  0.61359256  0.51109993    -0.41000
C1885       C  0.72209348  0.63568853  0.52490402     0.32200
C1886       C  0.73478026  0.65772387  0.50640648     0.14000
F1887       F  0.74825117  0.63530195  0.92560569    -0.13400
F1888       F  0.71158567  0.63561968  0.55503498    -0.13900
F1889       F  0.72436420  0.59301050  0.96152401    -0.16200
F1890       F  0.73606001  0.67835165  0.51925627    -0.14700
F1891       F  0.72233801  0.66043220  0.90570397    -0.14700
F1892       F  0.80412609  0.74422726  0.95299560    -0.16100
C1893       C  0.65522805  0.72997802  0.74920542     0.13900
C1894       C  0.65736286  0.74350995  0.77883223     0.00900
C1895       C  0.63703236  0.74568394  0.78899336     0.15900
C1896       C  0.61464010  0.73336413  0.77125659     0.25300
C1897       C  0.61208145  0.71871432  0.74280205    -0.41100
C1898       C  0.63282961  0.71781157  0.73126710     0.32300
C1899       C  0.68056577  0.75482181  0.79935351     0.01000
F1900       F  0.63877091  0.75953575  0.81638358    -0.13400
F1901       F  0.63090894  0.70366148  0.70416157    -0.13900
C1902       C  0.70331281  0.77106229  0.78410819     0.15900
C1903       C  0.72538153  0.77998943  0.80216646     0.25300
C1904       C  0.72541359  0.77291898  0.83607569    -0.41000
C1905       C  0.70256322  0.75781351  0.85209518     0.32200
C1906       C  0.68032993  0.74878567  0.83385745     0.14000
F1907       F  0.70421565  0.77814555  0.75141999    -0.13400
F1908       F  0.70177507  0.75060451  0.88468058    -0.13900
F1909       F  0.74692707  0.79540862  0.78614883    -0.16200
F1910       F  0.65865537  0.73313072  0.84943232    -0.14700
F1911       F  0.67443032  0.72736711  0.73869310    -0.14700
F1912       F  0.59516798  0.73531737  0.78232342    -0.16100
C1913       C  0.56168725  0.59554552  0.62905573     0.13900
C1914       C  0.58420261  0.59761421  0.63896001     0.00900
C1915       C  0.59662152  0.61232743  0.66731065     0.15900
C1916       C  0.58719608  0.62541572  0.68456065     0.25300
C1917       C  0.56514377  0.62402464  0.67383555    -0.41100
C1918       C  0.55230644  0.60864679  0.64623326     0.32300
C1919       C  0.59527872  0.58522607  0.61924092     0.01000
F1920       F  0.61858545  0.61501172  0.67724987    -0.13400
F1921       F  0.53071902  0.60654878  0.63561835    -0.13900
C1922       C  0.60200272  0.59114102  0.58494332     0.15900
C1923       C  0.61507516  0.58163698  0.56764165     0.25300
C1924       C  0.62158195  0.56596871  0.58430483    -0.41000
C1925       C  0.61344718  0.55891630  0.61799295     0.32200
C1926       C  0.60052176  0.56845035  0.63519219     0.14000
F1927       F  0.59712050  0.60722830  0.56874546    -0.13400
F1928       F  0.61850495  0.54309648  0.63467995    -0.13900
F1929       F  0.62279280  0.58908771  0.53543373    -0.16200
F1930       F  0.59344563  0.56157547  0.66776811    -0.14700
F1931       F  0.54883602  0.58093293  0.60255953    -0.14700
F1932       F  0.60050642  0.64076050  0.71021357    -0.16100
C1933       C  0.39993572  0.55020864  0.83793142     0.13900
C1934       C  0.41096460  0.54121822  0.81556305     0.00900
C1935       C  0.40372590  0.51615161  0.81651210     0.15900
C1936       C  0.38586769  0.50033798  0.83994445     0.25300
C1937       C  0.37551302  0.50961664  0.86329973    -0.41100
C1938       C  0.38253277  0.53466265  0.86161452     0.32300
C1939       C  0.43102002  0.55878899  0.79301715     0.01000
F1940       F  0.41420037  0.50710156  0.79509101    -0.13400
F1941       F  0.37273756  0.54432195  0.88321950    -0.13900
C1942       C  0.45566112  0.56564334  0.79988521     0.15900
C1943       C  0.47508455  0.58597791  0.78356698     0.25300
C1944       C  0.47012951  0.59989866  0.76027862    -0.41000
C1945       C  0.44536301  0.59190555  0.75180576     0.32200
C1946       C  0.42601942  0.57154281  0.76805997     0.14000
F1947       F  0.46091803  0.55376779  0.82424469    -0.13400
F1948       F  0.43982676  0.60420320  0.72844415    -0.13900
F1949       F  0.49867466  0.59305570  0.79246872    -0.16200
F1950       F  0.40230795  0.56489220  0.76055202    -0.14700
F1951       F  0.40681301  0.57440909  0.83771207    -0.14700
F1952       F  0.37956128  0.47631213  0.84076220    -0.16100
C1953       C  0.43048305  0.55384653  0.56127008     0.13900
C1954       C  0.43606766  0.57742123  0.55080614     0.00900
C1955       C  0.42405040  0.57977300  0.52233614     0.15900
C1956       C  0.40633672  0.55881652  0.50492695     0.25300
C1957       C  0.40023836  0.53503178  0.51575823    -0.41100
C1958       C  0.41284508  0.53284981  0.54387910     0.32300
C1959       C  0.45310580  0.59924822  0.57127674     0.01000
F1960       F  0.42923193  0.60238903  0.51170731    -0.13400
F1961       F  0.40727627  0.51037032  0.55564621    -0.13900
C1962       C  0.47883601  0.60928722  0.56934255     0.15900
C1963       C  0.49461923  0.62783359  0.59194783     0.25300
C1964       C  0.48480183  0.63616675  0.61737594    -0.41000
C1965       C  0.45906876  0.62695439  0.61794333     0.32200
C1966       C  0.44344331  0.60880720  0.59498134     0.14000
F1967       F  0.48856686  0.60049016  0.54631049    -0.13400
F1968       F  0.44889466  0.63502272  0.64141932    -0.13900
F1969       F  0.51929223  0.63645119  0.59032684    -0.16200
F1970       F  0.41867632  0.59967418  0.59696199    -0.14700
F1971       F  0.44145621  0.55115407  0.58926473    -0.14700
F1972       F  0.39508265  0.56183104  0.47750745    -0.16100
C1973       C  0.23114420  0.29994987  0.54084037     0.13900
C1974       C  0.25214614  0.32071148  0.55369490     0.00900
C1975       C  0.26098502  0.31960597  0.58605253     0.15900
C1976       C  0.24977712  0.29759656  0.60444322     0.25300
C1977       C  0.22984444  0.27639925  0.59045463    -0.41100
C1978       C  0.22002858  0.27798697  0.55910344     0.32300
C1979       C  0.26501867  0.34346393  0.53330140     0.01000
F1980       F  0.28136619  0.33945223  0.59894108    -0.13400
F1981       F  0.20015426  0.25791993  0.54558460    -0.13900
C1982       C  0.26747167  0.36535484  0.54605156     0.15900
C1983       C  0.28116510  0.38732356  0.52836460     0.25300
C1984       C  0.29203943  0.38624258  0.99317047    -0.41000
C1985       C  0.29387333  0.36547323  0.98525485     0.32200
C1986       C  0.27558031  0.34364531  0.50167211     0.14000
F1987       F  0.25682170  0.36547916  0.57598108    -0.13400
F1988       F  0.30910131  0.36645652  0.96002749    -0.13900
F1989       F  0.28355767  0.40827980  0.54186642    -0.16200
F1990       F  0.27365214  0.32267147  0.48901231    -0.14700
F1991       F  0.22173270  0.30082813  0.51026384    -0.14700
F1992       F  0.25961333  0.29651117  0.63455219    -0.16100
C1993       C  0.56733322  0.45407866  0.94700459     0.13900
C1994       C  0.56185546  0.42974141  0.95242413     0.00900
C1995       C  0.57464356  0.42518627  0.97793205     0.15900
C1996       C  0.59367095  0.44473144  0.99611459     0.25300
C1997       C  0.60026185  0.46930900  0.98925621    -0.41100
C1998       C  0.58618102  0.47363584  0.96536009     0.32300
C1999       C  0.54553659  0.40984163  0.92837602     0.01000
F2000       F  0.56971796  0.40189842  0.98383169    -0.13400
F2001       F  0.59158366  0.49692063  0.95818305    -0.13900
C2002       C  0.55323462  0.41119145  0.89471015     0.15900
C2003       C  0.53886806  0.39263347  0.87154118     0.25300
C2004       C  0.51611485  0.37190254  0.88130563    -0.41000
C2005       C  0.50830990  0.37062105  0.91520571     0.32200
C2006       C  0.52298317  0.38935515  0.93854212     0.14000
F2007       F  0.57509448  0.43051550  0.88426230    -0.13400
F2008       F  0.48657630  0.35128814  0.92586520    -0.13900
F2009       F  0.54735438  0.39538974  0.83923140    -0.16200
F2010       F  0.51503439  0.38766143  0.97095701    -0.14700
F2011       F  0.55504643  0.45900742  0.92283725    -0.14700
F2012       F  0.60752484  0.44113812  0.52340583    -0.16100
C2013       C  0.58653490  0.46244166  0.65103718     0.13900
C2014       C  0.59314335  0.45957031  0.68404047     0.00900
C2015       C  0.61814021  0.47385519  0.69391994     0.15900
C2016       C  0.63622524  0.48971067  0.67066012     0.25300
C2017       C  0.62953477  0.49148790  0.63728018    -0.41100
C2018       C  0.60446463  0.47829460  0.62810554     0.32300
C2019       C  0.57411046  0.44020897  0.70655051     0.01000
F2020       F  0.62509605  0.47211999  0.72586302    -0.13400
F2021       F  0.59733516  0.48043089  0.59642029    -0.13900
C2022       C  0.57780298  0.42161491  0.72000317     0.15900
C2023       C  0.55853110  0.40121140  0.73641201     0.25300
C2024       C  0.53487370  0.39863167  0.73928542    -0.41000
C2025       C  0.53156296  0.41787699  0.72722349     0.32200
C2026       C  0.55102078  0.43850190  0.71144868     0.14000
F2027       F  0.59970045  0.42242283  0.71561057    -0.13400
F2028       F  0.50926400  0.41649347  0.72956591    -0.13900
F2029       F  0.56297306  0.38363055  0.74854781    -0.16200
F2030       F  0.54707348  0.45660316  0.70012777    -0.14700
F2031       F  0.56280877  0.44884914  0.64021411    -0.14700
F2032       F  0.66031174  0.50224650  0.68019148    -0.16100
C2033       C  0.34575810  0.26627223  0.75220886     0.13900
C2034       C  0.34563327  0.25929150  0.71805615     0.00900
C2035       C  0.36808433  0.26360997  0.70382524     0.15900
C2036       C  0.39014130  0.27580721  0.72235591     0.25300
C2037       C  0.39042715  0.28366617  0.75597726    -0.41100
C2038       C  0.36785222  0.27800890  0.77106042     0.32300
C2039       C  0.32230484  0.24793551  0.69730425     0.01000
F2040       F  0.36878616  0.25618674  0.67174008    -0.13400
F2041       F  0.36738733  0.28537142  0.80323640    -0.13900
C2042       C  0.32150946  0.25714514  0.66490075     0.15900
C2043       C  0.29914131  0.24739282  0.64672863     0.25300
C2044       C  0.27701662  0.22856545  0.66078591    -0.41000
C2045       C  0.27802453  0.21888976  0.69256953     0.32200
C2046       C  0.30033091  0.22815655  0.71026463     0.14000
F2047       F  0.34209278  0.27652494  0.65154721    -0.13400
F2048       F  0.25709096  0.20067950  0.70707622    -0.13900
F2049       F  0.29883400  0.25758037  0.61658002    -0.16200
F2050       F  0.30033341  0.21781551  0.74041084    -0.14700
F2051       F  0.32469855  0.26301236  0.76686856    -0.14700
F2052       F  0.41151323  0.28048664  0.70700672    -0.16100
C2053       C  0.41925958  0.44209381  0.88749389     0.13900
C2054       C  0.41636237  0.41918013  0.89613265     0.00900
C2055       C  0.40264018  0.40704467  0.92533549     0.15900
C2056       C  0.39043156  0.41681558  0.94400732     0.25300
C2057       C  0.39190474  0.43889099  0.93379793    -0.41100
C2058       C  0.40720486  0.45187154  0.90617234     0.32300
C2059       C  0.42637715  0.40728062  0.87363968     0.01000
F2060       F  0.39951111  0.38481443  0.93421810    -0.13400
F2061       F  0.40904018  0.47330045  0.89583239    -0.13900
C2062       C  0.44427455  0.40209380  0.88575431     0.15900
C2063       C  0.45210675  0.38895744  0.86575980     0.25300
C2064       C  0.44202212  0.38045499  0.83327786    -0.41000
C2065       C  0.42512505  0.38680359  0.82030137     0.32200
C2066       C  0.41736287  0.40015892  0.84036494     0.14000
F2067       F  0.45385348  0.40937954  0.91727597    -0.13400
F2068       F  0.41487200  0.37864968  0.78931152    -0.13900
F2069       F  0.46916187  0.38389006  0.87857709    -0.16200
F2070       F  0.40002283  0.40497335  0.82802992    -0.14700
F2071       F  0.43293960  0.45450532  0.86004532    -0.14700
F2072       F  0.37522008  0.40351046  0.96982855    -0.16100
C2073       C  0.60278977  0.01296200  0.83057902     0.13900
C2074       C  0.59269992  0.01164527  0.86304745     0.00900
C2075       C  0.59359342  0.03284114  0.87613816     0.15900
C2076       C  0.60532214  0.05508906  0.85809717     0.25300
C2077       C  0.61666679  0.05688021  0.82645404    -0.41100
C2078       C  0.61470931  0.03536604  0.81248813     0.32300
C2079       C  0.58203134  0.98853568  0.88378749     0.01000
F2080       F  0.58337899  0.03208844  0.90679208    -0.13400
F2081       F  0.62582601  0.03638416  0.78250894    -0.13900
C2082       C  0.59341635  0.98772234  0.91420133     0.15900
C2083       C  0.58409607  0.96568679  0.93284792     0.25300
C2084       C  0.56314189  0.94401748  0.92151898    -0.41000
C2085       C  0.55123933  0.94515786  0.89187484     0.32200
C2086       C  0.56054932  0.96709582  0.87325212     0.14000
F2087       F  0.61423933  0.00806200  0.92507200    -0.13400
F2088       F  0.53052007  0.92481676  0.88080779    -0.13900
F2089       F  0.59641188  0.96518627  0.96080312    -0.16200
F2090       F  0.54856192  0.96739089  0.84481108    -0.14700
F2091       F  0.60226756  0.99283484  0.81717055    -0.14700
F2092       F  0.60613078  0.07521245  0.87205075    -0.16100
C2093       C  0.55858933  0.77553061  0.62672212     0.13900
C2094       C  0.53806091  0.77888681  0.62698366     0.00900
C2095       C  0.51745317  0.76326555  0.64683257     0.15900
C2096       C  0.51659893  0.74345963  0.66423301     0.25300
C2097       C  0.53643875  0.73886915  0.66203942    -0.41100
C2098       C  0.55792504  0.75588068  0.64430582     0.32300
C2099       C  0.53618183  0.79533293  0.60183884     0.01000
F2100       F  0.49737020  0.76612870  0.64734039    -0.13400
F2101       F  0.57783572  0.75279181  0.64219813    -0.13900
C2102       C  0.53236175  0.78805613  0.56783698     0.15900
C2103       C  0.52848664  0.80185395  0.54363630     0.25300
C2104       C  0.52837174  0.82354332  0.55276380    -0.41000
C2105       C  0.53303646  0.83130514  0.58685927     0.32200
C2106       C  0.53666075  0.81712470  0.61127549     0.14000
F2107       F  0.53178001  0.76705045  0.55812949    -0.13400
F2108       F  0.53367359  0.85228450  0.59670504    -0.13900
F2109       F  0.52505138  0.79386337  0.51104522    -0.16200
F2110       F  0.54059816  0.82459726  0.64407477    -0.14700
F2111       F  0.57878696  0.79052684  0.60782088    -0.14700
F2112       F  0.49585310  0.72821001  0.68198880    -0.16100
C2113       C  0.54998049  0.78153737  0.87322441     0.13900
C2114       C  0.52917510  0.75794357  0.87741443     0.00900
C2115       C  0.51072814  0.75474580  0.90052903     0.15900
C2116       C  0.51221796  0.77496690  0.91746332     0.25300
C2117       C  0.53230138  0.79890933  0.91171874    -0.41100
C2118       C  0.55164665  0.80181958  0.89044310     0.32300
C2119       C  0.52548163  0.73732434  0.85513305     0.01000
F2120       F  0.49077876  0.73207109  0.90583167    -0.13400
F2121       F  0.57138172  0.82448329  0.88444096    -0.13900
C2122       C  0.54303106  0.72965038  0.85363726     0.15900
C2123       C  0.54051498  0.71187664  0.82996113     0.25300
C2124       C  0.52068698  0.70193290  0.80694885    -0.41000
C2125       C  0.50254864  0.70879372  0.80963329     0.32200
C2126       C  0.50487722  0.72622293  0.83351547     0.14000
F2127       F  0.56290127  0.73981127  0.87457869    -0.13400
F2128       F  0.48278663  0.69905311  0.78845507    -0.13900
F2129       F  0.55820467  0.70549833  0.82825396    -0.16200
F2130       F  0.48762862  0.73325241  0.83422899    -0.14700
F2131       F  0.56790003  0.78524807  0.85063388    -0.14700
F2132       F  0.49353390  0.77112149  0.93874670    -0.16100
C2133       C  0.78226393  0.89104583  0.94599893     0.13900
C2134       C  0.80054835  0.90497037  0.97011266     0.00900
C2135       C  0.81963705  0.89991893  0.97580529     0.15900
C2136       C  0.82038496  0.88108082  0.95804504     0.25300
C2137       C  0.80195222  0.86675985  0.93421696    -0.41100
C2138       C  0.78291527  0.87200335  0.92816876     0.32300
C2139       C  0.80847665  0.92967386  0.49113465     0.01000
F2140       F  0.84352800  0.93589665  0.44019108    -0.13400
F2141       F  0.76519763  0.85895287  0.90477897    -0.13900
C2142       C  0.82798604  0.94006910  0.51452634     0.15900
C2143       C  0.82966232  0.95735568  0.53826232     0.25300
C2144       C  0.81209906  0.96510471  0.53885759    -0.41000
C2145       C  0.79327792  0.95570273  0.51424114     0.32200
C2146       C  0.79129562  0.93787896  0.49085852     0.14000
F2147       F  0.84490781  0.93262681  0.51538856    -0.13400
F2148       F  0.77613169  0.96284355  0.51382151    -0.13900
F2149       F  0.84841263  0.96629152  0.56108127    -0.16200
F2150       F  0.82547983  0.95625445  0.95440892    -0.14700
F2151       F  0.76369482  0.89574333  0.94006817    -0.14700
F2152       F  0.83862059  0.87612310  0.96529696    -0.16100
C2153       C  0.79705817  0.85600274  0.73379086     0.13900
C2154       C  0.80582413  0.88085263  0.74152892     0.00900
C2155       C  0.81938378  0.89083196  0.77123468     0.15900
C2156       C  0.82329345  0.87613313  0.79376616     0.25300
C2157       C  0.81362287  0.85079866  0.78720643    -0.41100
C2158       C  0.80095404  0.84103760  0.75642984     0.32300
C2159       C  0.80080255  0.89685610  0.71954710     0.01000
F2160       F  0.82865504  0.91499206  0.77867769    -0.13400
F2161       F  0.79174883  0.81696799  0.74860904    -0.13900
C2162       C  0.78445804  0.90458112  0.73066006     0.15900
C2163       C  0.78313438  0.92343028  0.71372159     0.25300
C2164       C  0.79848216  0.93514649  0.68567102    -0.41000
C2165       C  0.81405304  0.92658479  0.67370804     0.32200
C2166       C  0.81511174  0.90752837  0.69045501     0.14000
F2167       F  0.77080368  0.89476268  0.75914219    -0.13400
F2168       F  0.82886876  0.93721759  0.64639442    -0.13900
F2169       F  0.76828274  0.93147375  0.72636717    -0.16200
F2170       F  0.83126273  0.90056920  0.67957815    -0.14700
F2171       F  0.78414089  0.84610752  0.70485429    -0.14700
F2172       F  0.83628189  0.88689853  0.82239734    -0.16100
C2173       C  0.73085301  0.08026036  0.75071373     0.13900
C2174       C  0.74077673  0.08948058  0.71835112     0.00900
C2175       C  0.73767947  0.10834991  0.70467053     0.15900
C2176       C  0.72387601  0.11687054  0.72204635     0.25300
C2177       C  0.71276681  0.10672660  0.75360151    -0.41100
C2178       C  0.71700133  0.08880442  0.76818283     0.32300
C2179       C  0.75302182  0.07838538  0.69822957     0.01000
F2180       F  0.74779154  0.11834869  0.67418502    -0.13400
F2181       F  0.70637275  0.07836604  0.79824209    -0.13900
C2182       C  0.74274636  0.06619646  0.66736946     0.15900
C2183       C  0.75240724  0.05314144  0.65048944     0.25300
C2184       C  0.77253904  0.05202085  0.66413221    -0.41000
C2185       C  0.78371438  0.06547710  0.69389287     0.32200
C2186       C  0.77410528  0.07853469  0.71068078     0.14000
F2187       F  0.72236676  0.06566284  0.65463823    -0.13400
F2188       F  0.80367803  0.06546660  0.70722988    -0.13900
F2189       F  0.74087629  0.04003855  0.62228796    -0.16200
F2190       F  0.78512485  0.09096991  0.73953852    -0.14700
F2191       F  0.73343119  0.06196617  0.76461263    -0.14700
F2192       F  0.72102415  0.13488631  0.70768182    -0.16100
C2193       C  0.67974361  0.94435572  0.58876232     0.13900
C2194       C  0.67815562  0.92973438  0.56068426     0.00900
C2195       C  0.69841096  0.92678411  0.55308958     0.15900
C2196       C  0.72021812  0.93909401  0.57208103     0.25300
C2197       C  0.72234388  0.95473240  0.59901852    -0.41100
C2198       C  0.70170352  0.95682156  0.60773536     0.32300
C2199       C  0.65556916  0.91788072  0.53903702     0.01000
F2200       F  0.69719621  0.91226010  0.52684910    -0.13400
F2201       F  0.70338805  0.97228879  0.63294279    -0.13900
C2202       C  0.65608227  0.92567496  0.50539922     0.15900
C2203       C  0.63427159  0.91565678  0.48596861     0.25300
C2204       C  0.60775092  0.89571947  0.00042674    -0.41000
C2205       C  0.61155088  0.88891508  0.53284340     0.32200
C2206       C  0.63320366  0.89900580  0.55220237     0.14000
F2207       F  0.67748713  0.94390054  0.49200909    -0.13400
F2208       F  0.59015489  0.87104845  0.54682200    -0.13900
F2209       F  0.62976211  0.92899575  0.96164294    -0.16200
F2210       F  0.63225667  0.89060587  0.58414368    -0.14700
F2211       F  0.66046164  0.94758566  0.59667115    -0.14700
F2212       F  0.73968926  0.93633841  0.56354057    -0.16100
C2213       C  0.56701361  0.14916751  0.73781687     0.13900
C2214       C  0.55507434  0.13397969  0.70977149     0.00900
C2215       C  0.56254192  0.11740765  0.69891627     0.15900
C2216       C  0.58230536  0.11683877  0.71468530     0.25300
C2217       C  0.59527804  0.13309153  0.74139434    -0.41100
C2218       C  0.58699004  0.14883105  0.75337369     0.32300
C2219       C  0.53690304  0.13723630  0.68934875     0.01000
F2220       F  0.55169430  0.10282817  0.67155628    -0.13400
F2221       F  0.59841999  0.16412157  0.77993699    -0.13900
C2222       C  0.54463747  0.15949996  0.67223108     0.15900
C2223       C  0.52908278  0.16175648  0.64887353     0.25300
C2224       C  0.50525080  0.14171054  0.64192831    -0.41000
C2225       C  0.49696139  0.11987090  0.66078675     0.32200
C2226       C  0.51267924  0.11766635  0.68413285     0.14000
F2227       F  0.56792390  0.17872947  0.67665098    -0.13400
F2228       F  0.47413445  0.10013343  0.65544093    -0.13900
F2229       F  0.53782202  0.18345120  0.63223214    -0.16200
F2230       F  0.50447090  0.09615755  0.70104719    -0.14700
F2231       F  0.55963236  0.16471442  0.74967295    -0.14700
F2232       F  0.58980138  0.10153429  0.70224795    -0.16100
C2233       C  0.60906965  0.13138553  0.93911892     0.13900
C2234       C  0.59850252  0.14648943  0.93754881     0.00900
C2235       C  0.60574951  0.16390536  0.91141777     0.15900
C2236       C  0.62225147  0.16536316  0.88638219     0.25300
C2237       C  0.63187682  0.14932691  0.88675588    -0.41100
C2238       C  0.62574630  0.13288951  0.91408827     0.32300
C2239       C  0.57851830  0.14293190  0.96132815     0.01000
F2240       F  0.59585668  0.17872995  0.90910891    -0.13400
F2241       F  0.63493958  0.11747093  0.91582494    -0.13900
C2242       C  0.58082302  0.16252207  0.98122194     0.15900
C2243       C  0.56071455  0.16002108  0.00010469     0.25300
C2244       C  0.53771708  0.13793280  0.99902774    -0.41000
C2245       C  0.53591509  0.11791561  0.98058525     0.32200
C2246       C  0.55608369  0.12042179  0.96189939     0.14000
F2247       F  0.60232489  0.18442656  0.98137477    -0.13400
F2248       F  0.51432649  0.09611025  0.97960969    -0.13900
F2249       F  0.56337437  0.17981355  0.01757930    -0.16200
F2250       F  0.55318025  0.10128899  0.94256505    -0.14700
F2251       F  0.60280011  0.11480611  0.96457965    -0.14700
F2252       F  0.62844779  0.18227855  0.86135850    -0.16100
C2253       C  0.45256693  0.18271681  0.90442808     0.13900
C2254       C  0.47229437  0.20674522  0.89898667     0.00900
C2255       C  0.49487063  0.21434470  0.91548199     0.15900
C2256       C  0.49731548  0.19875259  0.93838465     0.25300
C2257       C  0.47719057  0.17508987  0.94532581    -0.41100
C2258       C  0.45500339  0.16696346  0.92721222     0.32300
C2259       C  0.46901583  0.22471889  0.87848253     0.01000
F2260       F  0.51421586  0.23748566  0.91088473    -0.13400
F2261       F  0.43513245  0.14432980  0.93298598    -0.13900
C2262       C  0.45219840  0.23203076  0.88897130     0.15900
C2263       C  0.45140683  0.25137890  0.87259639     0.25300
C2264       C  0.46771193  0.26405741  0.84572023    -0.41000
C2265       C  0.48371218  0.25593736  0.83422297     0.32200
C2266       C  0.48426329  0.23638529  0.85035678     0.14000
F2267       F  0.43754056  0.22139240  0.91640945    -0.13400
F2268       F  0.49896855  0.26705031  0.80746190    -0.13900
F2269       F  0.43576199  0.25869221  0.88445309    -0.16200
F2270       F  0.50003625  0.22910223  0.83893304    -0.14700
F2271       F  0.43069002  0.17474223  0.88834100    -0.14700
F2272       F  0.51892511  0.20628131  0.45557844    -0.16100
C2273       C  0.46652921  0.27797433  0.64361964     0.13900
C2274       C  0.46376371  0.25528151  0.65360716     0.00900
C2275       C  0.46378000  0.25026279  0.68817806     0.15900
C2276       C  0.46728198  0.26784251  0.71239731     0.25300
C2277       C  0.47111805  0.29108500  0.70262477    -0.41100
C2278       C  0.46995453  0.29571381  0.66798946     0.32300
C2279       C  0.46215907  0.23705124  0.62848945     0.01000
F2280       F  0.46121828  0.22851275  0.69851441    -0.13400
F2281       F  0.47283348  0.31756196  0.65764893    -0.13900
C2282       C  0.48276485  0.24221990  0.60844785     0.15900
C2283       C  0.48311963  0.22355944  0.58951233     0.25300
C2284       C  0.46283449  0.19933141  0.59047977    -0.41000
C2285       C  0.44158944  0.19466255  0.60890895     0.32200
C2286       C  0.44132959  0.21332543  0.62781653     0.14000
F2287       F  0.50329790  0.26490485  0.60929234    -0.13400
F2288       F  0.42133653  0.17177264  0.60973894    -0.13900
F2289       F  0.50404729  0.22887440  0.57237765    -0.16200
F2290       F  0.42111955  0.20796948  0.64678753    -0.14700
F2291       F  0.46607640  0.28295419  0.61028406    -0.14700
F2292       F  0.46681060  0.26194791  0.74558858    -0.16100
C2293       C  0.32111901  0.06528322  0.91018829     0.13900
C2294       C  0.32358813  0.07691186  0.94169762     0.00900
C2295       C  0.30305929  0.07743934  0.95512998     0.15900
C2296       C  0.28015264  0.06506252  0.93874051     0.25300
C2297       C  0.27724817  0.05182425  0.90866329    -0.41100
C2298       C  0.29814937  0.05288324  0.89378472     0.32300
C2299       C  0.34653199  0.08594009  0.96221823     0.01000
F2300       F  0.30469591  0.08844183  0.98537859    -0.13400
F2301       F  0.29596288  0.04032822  0.86478176    -0.13900
C2302       C  0.35941425  0.11009211  0.97527007     0.15900
C2303       C  0.38062827  0.11789306  0.99537186     0.25300
C2304       C  0.38845204  0.10105622  0.50267270    -0.41000
C2305       C  0.37300976  0.07597920  0.49490685     0.32200
C2306       C  0.35239277  0.06820573  0.47395809     0.14000
F2307       F  0.35189791  0.12633225  0.96767169    -0.13400
F2308       F  0.37806557  0.05892377  0.50751973    -0.13900
F2309       F  0.39327258  0.14153499  0.00638551    -0.16200
F2310       F  0.33771388  0.04382837  0.46743579    -0.14700
F2311       F  0.34074596  0.06499772  0.89603261    -0.14700
F2312       F  0.26049183  0.06523443  0.95296873    -0.16100
C2313       C  0.21764123  0.11676806  0.53190389     0.13900
C2314       C  0.19756067  0.09284234  0.53648176     0.00900
C2315       C  0.17905159  0.08892478  0.55987731     0.15900
C2316       C  0.17994814  0.10872502  0.57734598     0.25300
C2317       C  0.19926807  0.13300030  0.57137939    -0.41100
C2318       C  0.21853739  0.13670728  0.54920259     0.32300
C2319       C  0.19150197  0.07165852  0.02070097     0.01000
F2320       F  0.15575185  0.06556450  0.07011186    -0.13400
F2321       F  0.23744283  0.15974200  0.54251907    -0.13900
C2322       C  0.20690588  0.06013158  0.51700031     0.15900
C2323       C  0.20449796  0.04404677  0.99717185     0.25300
C2324       C  0.18631472  0.03640438  0.97171261    -0.41000
C2325       C  0.17031444  0.04608613  0.97189380     0.32200
C2326       C  0.17286110  0.06340267  0.99611297     0.14000
F2327       F  0.22274076  0.06552905  0.54331547    -0.13400
F2328       F  0.15233741  0.03914688  0.94816122    -0.13900
F2329       F  0.21703436  0.03046678  0.49745517    -0.16200
F2330       F  0.15771991  0.07299830  0.99463027    -0.14700
F2331       F  0.23557600  0.12099901  0.50903839    -0.14700
F2332       F  0.16148380  0.10414732  0.59945208    -0.16100
C2333       C  0.19729685  0.11958181  0.73204360     0.13900
C2334       C  0.19895021  0.12612441  0.76632567     0.00900
C2335       C  0.19720757  0.14681601  0.77535974     0.15900
C2336       C  0.19369484  0.16067606  0.75036866     0.25300
C2337       C  0.19138250  0.15367786  0.71597365    -0.41100
C2338       C  0.19355381  0.13311485  0.70722509     0.32300
C2339       C  0.20133577  0.11023858  0.79200630     0.01000
F2340       F  0.19904817  0.15367077  0.80832816    -0.13400
F2341       F  0.19247352  0.12614449  0.67438576    -0.13900
C2342       C  0.22196870  0.10703888  0.79145414     0.15900
C2343       C  0.22170824  0.08774072  0.80942502     0.25300
C2344       C  0.20060411  0.07099064  0.82799974    -0.41000
C2345       C  0.18090527  0.07574242  0.83105682     0.32200
C2346       C  0.18132789  0.09520500  0.81319796     0.14000
F2347       F  0.24185992  0.12184911  0.77193100    -0.13400
F2348       F  0.16079608  0.06102924  0.85025366    -0.13900
F2349       F  0.24161835  0.08467938  0.80679756    -0.16200
F2350       F  0.16137573  0.09825931  0.81470485    -0.14700
F2351       F  0.19881072  0.09961874  0.72262461    -0.14700
F2352       F  0.19217657  0.18060406  0.75985283    -0.16100
C2353       C  0.39832378  0.84646290  0.59349615     0.13900
C2354       C  0.40691594  0.86540037  0.56950896     0.00900
C2355       C  0.39660377  0.88072302  0.56861287     0.15900
C2356       C  0.37827057  0.87743512  0.59210088     0.25300
C2357       C  0.37025860  0.85893006  0.61702339    -0.41100
C2358       C  0.38026457  0.84322733  0.61696429     0.32300
C2359       C  0.42744892  0.86931212  0.54684834     0.01000
F2360       F  0.40457013  0.89905256  0.54538881    -0.13400
F2361       F  0.37295659  0.82490582  0.64012621    -0.13900
C2362       C  0.42340598  0.85194361  0.52164248     0.15900
C2363       C  0.44338696  0.85228316  0.50520012     0.25300
C2364       C  0.46785661  0.87001705  0.51373564    -0.41000
C2365       C  0.47181068  0.88837854  0.53752926     0.32200
C2366       C  0.45173383  0.88793359  0.55403413     0.14000
F2367       F  0.40005402  0.83393238  0.51410861    -0.13400
F2368       F  0.49508673  0.90570383  0.54663830    -0.13900
F2369       F  0.43876859  0.83481913  0.48152438    -0.16200
F2370       F  0.45605336  0.90464292  0.57876361    -0.14700
F2371       F  0.40818490  0.83157962  0.59498272    -0.14700
F2372       F  0.36928699  0.89306576  0.59145225    -0.16100
C2373       C  0.44607681  0.83677325  0.83827083     0.13900
C2374       C  0.45607097  0.85598854  0.81448168     0.00900
C2375       C  0.48180181  0.87220436  0.81392908     0.15900
C2376       C  0.49703682  0.87015450  0.83819552     0.25300
C2377       C  0.48663544  0.85217739  0.86374969    -0.41100
C2378       C  0.46116845  0.83486855  0.86257186     0.32300
C2379       C  0.43914783  0.85999255  0.79256206     0.01000
F2380       F  0.49204917  0.89039769  0.79045468    -0.13400
F2381       F  0.45067835  0.81637998  0.88563830    -0.13900
C2382       C  0.43813701  0.88174779  0.79548670     0.15900
C2383       C  0.41927413  0.88386701  0.77962782     0.25300
C2384       C  0.40096941  0.86418412  0.76052757    -0.41000
C2385       C  0.40297626  0.84296247  0.75607344     0.32200
C2386       C  0.42183379  0.84094443  0.77189298     0.14000
F2387       F  0.45449564  0.90038116  0.81555891    -0.13400
F2388       F  0.38626659  0.82369494  0.73716901    -0.13900
F2389       F  0.41822931  0.90466715  0.78460583    -0.16200
F2390       F  0.42271451  0.81995852  0.76791031    -0.14700
F2391       F  0.42136735  0.82064698  0.83934282    -0.14700
F2392       F  0.52167047  0.88654146  0.83777443    -0.16100
C2393       C  0.26769125  0.90340091  0.79929448     0.13900
C2394       C  0.26702785  0.92369817  0.78586854     0.00900
C2395       C  0.27812899  0.93295006  0.75405435     0.15900
C2396       C  0.29038842  0.92260071  0.73665052     0.25300
C2397       C  0.29182799  0.90283724  0.75079673    -0.41100
C2398       C  0.27983863  0.89306549  0.78196612     0.32300
C2399       C  0.25467966  0.93505990  0.80505619     0.01000
F2400       F  0.27795626  0.95266972  0.74048258    -0.13400
F2401       F  0.27989266  0.87336896  0.79577256    -0.13900
C2402       C  0.26359378  0.94617956  0.83691527     0.15900
C2403       C  0.25237083  0.95757056  0.85432764     0.25300
C2404       C  0.23206680  0.95813410  0.84014230    -0.41000
C2405       C  0.22265031  0.94615237  0.80887513     0.32200
C2406       C  0.23381165  0.93478267  0.79159791     0.14000
F2407       F  0.28387909  0.94696226  0.85046657    -0.13400
F2408       F  0.20268559  0.94570698  0.79474112    -0.13900
F2409       F  0.26231754  0.96935795  0.88396561    -0.16200
F2410       F  0.22424532  0.92351033  0.76153758    -0.14700
F2411       F  0.25647925  0.89351062  0.82930495    -0.14700
F2412       F  0.30196045  0.93275474  0.70693116    -0.16100
C2413       C  0.40216549  0.02079278  0.61276445     0.13900
C2414       C  0.41906313  0.01317468  0.62135890     0.00900
C2415       C  0.44295740  0.02582394  0.60690944     0.15900
C2416       C  0.44997017  0.04619291  0.58547663     0.25300
C2417       C  0.43342305  0.05459093  0.57874379    -0.41100
C2418       C  0.40930701  0.04132943  0.59218561     0.32300
C2419       C  0.41105761  0.99163832  0.64454564     0.01000
F2420       F  0.45985976  0.01913511  0.61462010    -0.13400
F2421       F  0.39253856  0.04846653  0.58573660    -0.13900
C2422       C  0.41297416  0.97122293  0.63438670     0.15900
C2423       C  0.40126105  0.94930369  0.65302564     0.25300
C2424       C  0.38721278  0.94719476  0.68203239    -0.41000
C2425       C  0.38690947  0.96808620  0.69380770     0.32200
C2426       C  0.39889259  0.99017466  0.67539965     0.14000
F2427       F  0.42442022  0.97172588  0.60492325    -0.13400
F2428       F  0.37310670  0.96648497  0.72128653    -0.13900
F2429       F  0.40233456  0.92951601  0.64153571    -0.16200
F2430       F  0.39746883  0.00979187  0.68679665    -0.14700
F2431       F  0.37850505  0.00824671  0.62425563    -0.14700
F2432       F  0.47332654  0.05849934  0.57293653    -0.16100
C2433       C  0.92271935  0.79308303  0.73023929     0.13900
C2434       C  0.92887046  0.80180171  0.76362868     0.00900
C2435       C  0.95368150  0.81192088  0.77421216     0.15900
C2436       C  0.97202055  0.81410785  0.75133732     0.25300
C2437       C  0.96576666  0.80627867  0.71761008    -0.41100
C2438       C  0.94083117  0.79511002  0.70772185     0.32300
C2439       C  0.90948944  0.80161661  0.78605699     0.01000
F2440       F  0.96020640  0.82006652  0.80647866    -0.13400
F2441       F  0.93402857  0.78666900  0.67557596    -0.13900
C2442       C  0.88654550  0.77992367  0.79065814     0.15900
C2443       C  0.86707462  0.78038913  0.80765904     0.25300
C2444       C  0.87008862  0.80255827  0.82098475    -0.41000
C2445       C  0.89341156  0.82414026  0.81723626     0.32200
C2446       C  0.91275615  0.82364196  0.79994231     0.14000
F2447       F  0.88279419  0.75822789  0.77802062    -0.13400
F2448       F  0.89740754  0.84607635  0.82921469    -0.13900
F2449       F  0.84504640  0.75913089  0.81012579    -0.16200
F2450       F  0.93432374  0.84507751  0.79517868    -0.14700
F2451       F  0.89927400  0.78375961  0.71866418    -0.14700
F2452       F  0.99591809  0.82501392  0.76160474    -0.16100
C2453       C  0.89606748  0.77506658  0.54244200     0.13900
C2454       C  0.89271771  0.79556281  0.54188017     0.00900
C2455       C  0.90892626  0.81653090  0.56071823     0.15900
C2456       C  0.92901490  0.81760033  0.57791595     0.25300
C2457       C  0.93338411  0.79768769  0.57659487    -0.41100
C2458       C  0.91611742  0.77607098  0.55961372     0.32300
C2459       C  0.87433328  0.80276568  0.02033067     0.01000
F2460       F  0.90628989  0.83666199  0.56064981    -0.13400
F2461       F  0.91929427  0.75628591  0.55794530    -0.13900
C2462       C  0.84841478  0.79019238  0.02260546     0.15900
C2463       C  0.83443059  0.79398332  0.99804818     0.25300
C2464       C  0.84626979  0.80999725  0.97054061    -0.41000
C2465       C  0.87232449  0.82312530  0.96932338     0.32200
C2466       C  0.88608294  0.81943893  0.99379493     0.14000
F2467       F  0.83672398  0.77423226  0.04840843    -0.13400
F2468       F  0.88471014  0.83955538  0.94422187    -0.13900
F2469       F  0.80941184  0.78146418  0.00066364    -0.16200
F2470       F  0.89491027  0.78870411  0.47166853    -0.14700
F2471       F  0.87625070  0.75850362  0.02318995    -0.14700
F2472       F  0.94462282  0.83850857  0.59495422    -0.16100
C2473       C  0.05311453  0.85348582  0.47498368     0.13900
C2474       C  0.07516221  0.87486313  0.48450200     0.00900
C2475       C  0.07926511  0.88127097  0.51882547     0.15900
C2476       C  0.06206750  0.86671262  0.54330359     0.25300
C2477       C  0.03977680  0.84524512  0.53427268    -0.41100
C2478       C  0.03560886  0.83863900  0.49972946     0.32300
C2479       C  0.09592816  0.89079496  0.96314984     0.01000
F2480       F  0.10002685  0.90210119  0.52874674    -0.13400
F2481       F  0.01456310  0.81814087  0.48985802    -0.13900
C2482       C  0.09038285  0.90420330  0.93980556     0.15900
C2483       C  0.10937903  0.92465741  0.92283355     0.25300
C2484       C  0.13446177  0.93228251  0.92883085    -0.41000
C2485       C  0.13984663  0.91772589  0.95033840     0.32200
C2486       C  0.12083692  0.89718832  0.96703828     0.14000
F2487       F  0.06630101  0.90160227  0.43333950    -0.13400
F2488       F  0.16361648  0.92414631  0.95693122    -0.13900
F2489       F  0.10314865  0.93739666  0.90120031    -0.16200
F2490       F  0.12689051  0.88408833  0.98826872    -0.14700
F2491       F  0.04959283  0.84815067  0.94222557    -0.14700
F2492       F  0.06766917  0.87370922  0.57617268    -0.16100
C2493       C  0.09119128  0.91426547  0.69068096     0.13900
C2494       C  0.10927485  0.91204858  0.70860045     0.00900
C2495       C  0.10995431  0.89011934  0.70599407     0.15900
C2496       C  0.09133959  0.86988614  0.68830745     0.25300
C2497       C  0.07167203  0.87131797  0.67325052    -0.41100
C2498       C  0.07267517  0.89422665  0.67307413     0.32300
C2499       C  0.12460032  0.93111931  0.73386366     0.01000
F2500       F  0.12756488  0.88769714  0.72262059    -0.13400
F2501       F  0.05510017  0.89708723  0.65711963    -0.13900
C2502       C  0.11278063  0.93536543  0.76107390     0.15900
C2503       C  0.12643211  0.95305145  0.78549643     0.25300
C2504       C  0.15243450  0.96689440  0.78355061    -0.41000
C2505       C  0.16431515  0.96298379  0.75582377     0.32200
C2506       C  0.15047774  0.94507582  0.73129741     0.14000
F2507       F  0.08782181  0.92182337  0.76447218    -0.13400
F2508       F  0.18931602  0.97589510  0.75293228    -0.13900
F2509       F  0.11403724  0.95643344  0.81124461    -0.16200
F2510       F  0.16229267  0.94135355  0.70511361    -0.14700
F2511       F  0.09066015  0.93556152  0.69192301    -0.14700
F2512       F  0.09184307  0.84857436  0.68772006    -0.16100
C2513       C  0.07602452  0.73326352  0.48859424     0.13900
C2514       C  0.08918674  0.74826289  0.51644098     0.00900
C2515       C  0.11325795  0.75290341  0.52252335     0.15900
C2516       C  0.12306716  0.74111509  0.50320526     0.25300
C2517       C  0.10754287  0.72086834  0.97991363    -0.41100
C2518       C  0.08593196  0.72151041  0.46917002     0.32300
C2519       C  0.07747829  0.75829650  0.53966421     0.01000
F2520       F  0.12693449  0.76815133  0.54804951    -0.13400
F2521       F  0.06998997  0.69814281  0.94867381    -0.13900
C2522       C  0.07444808  0.75261268  0.57461694     0.15900
C2523       C  0.06158061  0.76053667  0.59571776     0.25300
C2524       C  0.05146421  0.77419162  0.58216418    -0.41000
C2525       C  0.05558874  0.78072665  0.54752833     0.32200
C2526       C  0.06836005  0.77289144  0.52666918     0.14000
F2527       F  0.08283374  0.73830374  0.58795485    -0.13400
F2528       F  0.04670580  0.79441774  0.53348553    -0.13900
F2529       F  0.05771313  0.75356262  0.62871187    -0.16200
F2530       F  0.07157294  0.77937310  0.49346130    -0.14700
F2531       F  0.05277010  0.72845950  0.48180094    -0.14700
F2532       F  0.14402445  0.74385443  0.01345817    -0.16100
C2533       C  0.18250897  0.73931622  0.60024709     0.13900
C2534       C  0.20766945  0.74670948  0.60342656     0.00900
C2535       C  0.21741327  0.73504078  0.58368990     0.15900
C2536       C  0.20266493  0.71710560  0.56002592     0.25300
C2537       C  0.17763842  0.71014619  0.55576263    -0.41100
C2538       C  0.16748722  0.72094625  0.57682371     0.32300
C2539       C  0.22461529  0.76757772  0.62543716     0.01000
F2540       F  0.24163309  0.74179234  0.58640497    -0.13400
F2541       F  0.14343672  0.71465956  0.57358454    -0.13900
C2542       C  0.23518972  0.76337602  0.65411537     0.15900
C2543       C  0.25516939  0.78303248  0.67060026     0.25300
C2544       C  0.26492667  0.80730063  0.65872998    -0.41000
C2545       C  0.25321494  0.81164862  0.63143720     0.32200
C2546       C  0.23328425  0.79190071  0.61482311     0.14000
F2547       F  0.22686425  0.74007558  0.66517787    -0.13400
F2548       F  0.26229724  0.83475208  0.61909659    -0.13900
F2549       F  0.26549446  0.77826203  0.69761003    -0.16200
F2550       F  0.22362941  0.79635461  0.58680103    -0.14700
F2551       F  0.17265240  0.75019181  0.61937627    -0.14700
F2552       F  0.21306748  0.70675679  0.54087364    -0.16100
C2553       C  0.27642073  0.77660591  0.82412371     0.13900
C2554       C  0.26660552  0.78469352  0.84971381     0.00900
C2555       C  0.27531892  0.81002943  0.85313934     0.15900
C2556       C  0.29260217  0.82687785  0.83009705     0.25300
C2557       C  0.30102192  0.81849662  0.80303425    -0.41100
C2558       C  0.29345544  0.79332023  0.80105276     0.32300
C2559       C  0.24582890  0.76641526  0.87069418     0.01000
F2560       F  0.26652490  0.81831545  0.87823378    -0.13400
F2561       F  0.30211876  0.78474347  0.77612761    -0.13900
C2562       C  0.24826257  0.74902092  0.88994183     0.15900
C2563       C  0.22787669  0.73030271  0.90702657     0.25300
C2564       C  0.20452788  0.72859539  0.90521385    -0.41000
C2565       C  0.20235268  0.74641566  0.88631368     0.32200
C2566       C  0.22276950  0.76503604  0.86919542     0.14000
F2567       F  0.27037589  0.74996771  0.89180513    -0.13400
F2568       F  0.18030361  0.74547459  0.88334716    -0.13900
F2569       F  0.23104441  0.71363148  0.92478438    -0.16200
F2570       F  0.21972084  0.78108576  0.84973787    -0.14700
F2571       F  0.26842627  0.75228756  0.82019785    -0.14700
F2572       F  0.30000274  0.85109232  0.83318061    -0.16100
C2573       C  0.93706693  0.68084262  0.67522014     0.13900
C2574       C  0.93261169  0.68163065  0.71020561     0.00900
C2575       C  0.94036317  0.70473069  0.72504991     0.15900
C2576       C  0.95316510  0.72641700  0.70590609     0.25300
C2577       C  0.95835549  0.72565957  0.67119119    -0.41100
C2578       C  0.94955477  0.70256571  0.65591220     0.32300
C2579       C  0.92039821  0.65844372  0.73103266     0.01000
F2580       F  0.93551786  0.70635886  0.75819066    -0.13400
F2581       F  0.95431143  0.70105708  0.62273011    -0.13900
C2582       C  0.93164463  0.65591382  0.76060369     0.15900
C2583       C  0.92141173  0.63318724  0.77775184     0.25300
C2584       C  0.89984247  0.61249997  0.76559143    -0.41000
C2585       C  0.88801200  0.61540112  0.73714472     0.32200
C2586       C  0.89796330  0.63807614  0.72036895     0.14000
F2587       F  0.95341324  0.67497958  0.77168763    -0.13400
F2588       F  0.86710821  0.59585529  0.72477556    -0.13900
F2589       F  0.93368955  0.63091462  0.80451829    -0.16200
F2590       F  0.88586303  0.63996564  0.69309542    -0.14700
F2591       F  0.93036048  0.65903452  0.65995295    -0.14700
F2592       F  0.96063164  0.74831642  0.72149461    -0.16100
C2593       C  0.78098493  0.51659002  0.68337610     0.13900
C2594       C  0.79176702  0.53204206  0.65539034     0.00900
C2595       C  0.81749746  0.54410816  0.65104023     0.15900
C2596       C  0.83233113  0.54085663  0.67469190     0.25300
C2597       C  0.82158781  0.52568285  0.70327716    -0.41100
C2598       C  0.79560945  0.51339267  0.70703928     0.32300
C2599       C  0.77558624  0.53527338  0.63133262     0.01000
F2600       F  0.82820119  0.55899279  0.62391520    -0.13400
F2601       F  0.78412151  0.49823343  0.73371477    -0.13900
C2602       C  0.77369445  0.55655860  0.63242935     0.15900
C2603       C  0.75441629  0.55726251  0.61546610     0.25300
C2604       C  0.73661866  0.53651684  0.59738883    -0.41000
C2605       C  0.73998319  0.51606546  0.59403269     0.32200
C2606       C  0.75919242  0.51543735  0.61103379     0.14000
F2607       F  0.78949906  0.57599715  0.65182389    -0.13400
F2608       F  0.72421173  0.49624472  0.57519289    -0.13900
F2609       F  0.75238026  0.57765892  0.61852066    -0.16200
F2610       F  0.76109882  0.49491048  0.60908505    -0.14700
F2611       F  0.75612246  0.50488094  0.68812556    -0.14700
F2612       F  0.85717472  0.55297915  0.66994890    -0.16100
C2613       C  0.75851161  0.50969397  0.86484671     0.13900
C2614       C  0.76215592  0.52959901  0.88510131     0.00900
C2615       C  0.78591661  0.55045121  0.88700109     0.15900
C2616       C  0.80591776  0.55096538  0.87003570     0.25300
C2617       C  0.80248774  0.53056264  0.85071472    -0.41100
C2618       C  0.77835159  0.51014298  0.84781853     0.32300
C2619       C  0.74188714  0.52713827  0.90745711     0.01000
F2620       F  0.79002047  0.56979530  0.90682377    -0.13400
F2621       F  0.77386255  0.49023248  0.82901181    -0.13900
C2622       C  0.73322400  0.50952640  0.93337754     0.15900
C2623       C  0.71509192  0.50748442  0.95592726     0.25300
C2624       C  0.70484599  0.52291385  0.95302526    -0.41000
C2625       C  0.71255777  0.53968166  0.92581860     0.32200
C2626       C  0.73129355  0.54210926  0.90361297     0.14000
F2627       F  0.74298009  0.49470965  0.93756826    -0.13400
F2628       F  0.70248238  0.55414007  0.92116161    -0.13900
F2629       F  0.73934187  0.53949873  0.50074052    -0.16200
F2630       F  0.73913750  0.55908000  0.87844339    -0.14700
F2631       F  0.73569819  0.48941582  0.86232806    -0.14700
F2632       F  0.82877476  0.57097878  0.87389460    -0.16100
C2633       C  0.96912448  0.56294582  0.87996686     0.13900
C2634       C  0.99087320  0.58279506  0.86705861     0.00900
C2635       C  0.99086236  0.59103804  0.83385120     0.15900
C2636       C  0.96892860  0.58066752  0.81480965     0.25300
C2637       C  0.94678210  0.56180207  0.82868958    -0.41100
C2638       C  0.94741080  0.55239333  0.86090259     0.32300
C2639       C  0.01344592  0.59505442  0.88839225     0.01000
F2640       F  0.01179843  0.61006321  0.82063552    -0.13400
F2641       F  0.92658387  0.53349827  0.87461321    -0.13900
C2642       C  0.03476733  0.59481496  0.87831963     0.15900
C2643       C  0.05661246  0.60774941  0.89682506     0.25300
C2644       C  0.05775062  0.62146758  0.92578271    -0.41000
C2645       C  0.03601556  0.62058707  0.93706757     0.32200
C2646       C  0.01398040  0.60741116  0.91850485     0.14000
F2647       F  0.03450469  0.58225763  0.85018269    -0.13400
F2648       F  0.03646337  0.63372587  0.96462848    -0.13900
F2649       F  0.07697968  0.60738064  0.88582791    -0.16200
F2650       F  0.99347668  0.60771352  0.92898063    -0.14700
F2651       F  0.96879451  0.55407712  0.91141487    -0.14700
F2652       F  0.96899043  0.59028085  0.78403582    -0.16100
C2653       C  0.76878064  0.21484424  0.88067807     0.13900
C2654       C  0.77240914  0.23874639  0.87974843     0.00900
C2655       C  0.75709272  0.24358662  0.85924841     0.15900
C2656       C  0.73765319  0.22464014  0.84120924     0.25300
C2657       C  0.73290703  0.20027727  0.84355938    -0.41100
C2658       C  0.74920421  0.19572134  0.86274166     0.32300
C2659       C  0.79022268  0.25809753  0.90283385     0.01000
F2660       F  0.76052139  0.26665335  0.85763298    -0.13400
F2661       F  0.74547126  0.17260482  0.86571777    -0.13900
C2662       C  0.81581847  0.26798120  0.89929944     0.15900
C2663       C  0.83228175  0.28624675  0.92165906     0.25300
C2664       C  0.82331150  0.29476821  0.94812028    -0.41000
C2665       C  0.79754694  0.28502306  0.95092055     0.32200
C2666       C  0.78128991  0.26685524  0.92867863     0.14000
F2667       F  0.82484093  0.26003961  0.87406878    -0.13400
F2668       F  0.78689249  0.29673952  0.46900197    -0.13900
F2669       F  0.85691703  0.29549518  0.91738478    -0.16200
F2670       F  0.75658672  0.25723160  0.93298988    -0.14700
F2671       F  0.78328038  0.20972166  0.90057452    -0.14700
F2672       F  0.72308733  0.23017411  0.82213706    -0.16100
C2673       C  0.71974146  0.18744842  0.64234800     0.13900
C2674       C  0.73475598  0.21296449  0.64737883     0.00900
C2675       C  0.73182177  0.22339547  0.67711375     0.15900
C2676       C  0.71468545  0.20875482  0.70180000     0.25300
C2677       C  0.69979798  0.18298143  0.69752114    -0.41100
C2678       C  0.70229717  0.17258218  0.66708648     0.32300
C2679       C  0.75449159  0.22914508  0.62303064     0.01000
F2680       F  0.74628595  0.24792844  0.68278802    -0.13400
F2681       F  0.68842122  0.14799194  0.66159622    -0.13900
C2682       C  0.75224260  0.24687669  0.60423690     0.15900
C2683       C  0.77270339  0.26568959  0.58710407     0.25300
C2684       C  0.79604854  0.26749959  0.58911883    -0.41000
C2685       C  0.79785886  0.24884116  0.60631478     0.32200
C2686       C  0.77723378  0.22977081  0.62286703     0.14000
F2687       F  0.73044237  0.24662348  0.60384179    -0.13400
F2688       F  0.81976140  0.24933945  0.60775922    -0.13900
F2689       F  0.76997761  0.28302875  0.57042758    -0.16200
F2690       F  0.77984037  0.21270124  0.64046344    -0.14700
F2691       F  0.72211722  0.17692997  0.61363802    -0.14700
F2692       F  0.71308247  0.22004685  0.73022504    -0.16100
C2693       C  0.84762248  0.39843906  0.65362789     0.13900
C2694       C  0.86832354  0.41021144  0.67481217     0.00900
C2695       C  0.88579992  0.40244086  0.67431661     0.15900
C2696       C  0.88276235  0.38341637  0.65245372     0.25300
C2697       C  0.86220239  0.37189332  0.63049751    -0.41100
C2698       C  0.84450835  0.37955757  0.63185741     0.32300
C2699       C  0.87121997  0.43060521  0.69704209     0.01000
F2700       F  0.90575979  0.41324174  0.69505981    -0.13400
F2701       F  0.82417659  0.36909323  0.61175371    -0.13900
C2702       C  0.85398750  0.42579114  0.72296594     0.15900
C2703       C  0.85393588  0.44511615  0.74050255     0.25300
C2704       C  0.87126414  0.46979055  0.73266800    -0.41000
C2705       C  0.88926166  0.47459140  0.70767000     0.32200
C2706       C  0.88917690  0.45514410  0.68997419     0.14000
F2707       F  0.83670422  0.40224768  0.73064622    -0.13400
F2708       F  0.90596563  0.49808319  0.69886712    -0.13900
F2709       F  0.83660505  0.43961364  0.76488753    -0.16200
F2710       F  0.90575308  0.46031631  0.66460983    -0.14700
F2711       F  0.83057017  0.40572927  0.65340958    -0.14700
F2712       F  0.90023917  0.37670622  0.65237677    -0.16100
C2713       C  0.86274009  0.42829785  0.97649945     0.13900
C2714       C  0.87532629  0.43555443  0.94544034     0.00900
C2715       C  0.88942603  0.42501257  0.93503408     0.15900
C2716       C  0.88996847  0.40669377  0.95454185     0.25300
C2717       C  0.87623945  0.39834048  0.98491978    -0.41100
C2718       C  0.86318435  0.40996128  0.99608076     0.32300
C2719       C  0.87156839  0.45204818  0.92234477     0.01000
F2720       F  0.90204047  0.43190178  0.90528751    -0.13400
F2721       F  0.85010030  0.40467589  0.52543063    -0.13900
C2722       C  0.87834147  0.47621139  0.93177612     0.15900
C2723       C  0.87374581  0.49116622  0.91005377     0.25300
C2724       C  0.86225736  0.48219971  0.87839985    -0.41000
C2725       C  0.85534180  0.45775633  0.86939381     0.32200
C2726       C  0.85999833  0.44302682  0.89102504     0.14000
F2727       F  0.88981738  0.48545499  0.96181081    -0.13400
F2728       F  0.84398762  0.44780120  0.83949931    -0.13900
F2729       F  0.88084779  0.51446484  0.91992031    -0.16200
F2730       F  0.85272081  0.41958845  0.88152053    -0.14700
F2731       F  0.84866842  0.43788771  0.98689050    -0.14700
F2732       F  0.90300336  0.39635036  0.94262011    -0.16100
C2733       C  0.88676993  0.25010456  0.96487303     0.13900
C2734       C  0.90735074  0.24874882  0.97604740     0.00900
C2735       C  0.91765550  0.25875696  0.00791934     0.15900
C2736       C  0.90624642  0.27077842  0.52552322     0.25300
C2737       C  0.88739700  0.27423989  0.51254858    -0.41100
C2738       C  0.87748811  0.26226946  0.98446856     0.32300
C2739       C  0.91913194  0.23820368  0.95415107     0.01000
F2740       F  0.93791569  0.25830679  0.01905456    -0.13400
F2741       F  0.85805728  0.26638619  0.46872575    -0.13900
C2742       C  0.92940173  0.24871541  0.92243652     0.15900
C2743       C  0.94392113  0.24124550  0.90447504     0.25300
C2744       C  0.94858003  0.22333796  0.91811900    -0.41000
C2745       C  0.93703831  0.21186069  0.94882215     0.32200
C2746       C  0.92236503  0.21909921  0.96646350     0.14000
F2747       F  0.92683124  0.26739962  0.90997303    -0.13400
F2748       F  0.94066683  0.19411933  0.96242625    -0.13900
F2749       F  0.95503632  0.25292636  0.87521458    -0.16200
F2750       F  0.91196948  0.20801726  0.99633769    -0.14700
F2751       F  0.87622454  0.24043038  0.93447492    -0.14700
F2752       F  0.91772053  0.28188731  0.55487467    -0.16100
C2753       C  0.08653093  0.20999069  0.77192751     0.13900
C2754       C  0.08092013  0.20973928  0.73757667     0.00900
C2755       C  0.05832884  0.20779152  0.72834900     0.15900
C2756       C  0.04107875  0.20504425  0.75335324     0.25300
C2757       C  0.04614675  0.20383368  0.78784933    -0.41100
C2758       C  0.06944720  0.20710554  0.79676688     0.32300
C2759       C  0.09789692  0.20892045  0.71218588     0.01000
F2760       F  0.05281817  0.20801898  0.69517400    -0.13400
F2761       F  0.07571013  0.20712060  0.82969397    -0.13900
C2762       C  0.09222323  0.18628637  0.69778777     0.15900
C2763       C  0.11031496  0.18376120  0.68036169     0.25300
C2764       C  0.13457684  0.20392518  0.67709139    -0.41000
C2765       C  0.13963146  0.22706311  0.68960899     0.32200
C2766       C  0.12149109  0.22943515  0.70717010     0.14000
F2767       F  0.06959397  0.16615037  0.70276858    -0.13400
F2768       F  0.16245637  0.24724792  0.68640696    -0.13900
F2769       F  0.10425110  0.16124992  0.66809070    -0.16200
F2770       F  0.12732535  0.25152835  0.72081848    -0.14700
F2771       F  0.10824570  0.21184923  0.78141467    -0.14700
F2772       F  0.01911731  0.20249391  0.74372631    -0.16100
C2773       C  0.11129112  0.22886436  0.96231557     0.13900
C2774       C  0.11282854  0.20737270  0.96562323     0.00900
C2775       C  0.09507689  0.18587539  0.94931976     0.15900
C2776       C  0.07512336  0.18522105  0.93244896     0.25300
C2777       C  0.07220339  0.20612045  0.93158871    -0.41100
C2778       C  0.09121569  0.22828143  0.94545778     0.32300
C2779       C  0.12470840  0.20258211  0.48640159     0.01000
F2780       F  0.09601563  0.16484009  0.95179476    -0.13400
F2781       F  0.09006645  0.24922324  0.94376327    -0.13900
C2782       C  0.11424669  0.19112517  0.51728593     0.15900
C2783       C  0.12767128  0.18577253  0.54043860     0.25300
C2784       C  0.15238666  0.19208971  0.53367578    -0.41000
C2785       C  0.16273817  0.20310384  0.50211130     0.32200
C2786       C  0.14659738  0.19791186  0.98081150     0.14000
F2787       F  0.09067979  0.18496069  0.52507210    -0.13400
F2788       F  0.17545068  0.18524958  0.99571533    -0.13900
F2789       F  0.11625316  0.17459927  0.56981101    -0.16200
F2790       F  0.14907838  0.19364575  0.94773383    -0.14700
F2791       F  0.11220370  0.23932326  0.50019863    -0.14700
F2792       F  0.05806991  0.16357113  0.91830731    -0.16100
C2793       C  0.94516850  0.14438251  0.52231839     0.13900
C2794       C  0.92253666  0.11713288  0.00551912     0.00900
C2795       C  0.92416140  0.10977430  0.97262683     0.15900
C2796       C  0.94360414  0.12541279  0.95134087     0.25300
C2797       C  0.96216398  0.14896204  0.96260390    -0.41100
C2798       C  0.96041553  0.15623091  0.99582343     0.32300
C2799       C  0.90724669  0.10429687  0.53759766     0.01000
F2800       F  0.90680486  0.08726553  0.96106348    -0.13400
F2801       F  0.97945127  0.18316646  0.50731962    -0.13900
C2802       C  0.88297061  0.09888252  0.53116751     0.15900
C2803       C  0.86318773  0.08095119  0.55014370     0.25300
C2804       C  0.86732390  0.06777336  0.57555617    -0.41000
C2805       C  0.89189173  0.07428801  0.58324827     0.32200
C2806       C  0.91167741  0.09245724  0.56444917     0.14000
F2807       F  0.87835366  0.11028763  0.50544326    -0.13400
F2808       F  0.89674218  0.06263471  0.60841098    -0.13900
F2809       F  0.83987752  0.07538890  0.54207667    -0.16200
F2810       F  0.92751793  0.08287627  0.04524784    -0.14700
F2811       F  0.94477318  0.15352295  0.55331929    -0.14700
F2812       F  0.94384126  0.11741146  0.91945046    -0.16100
C2813       C  0.90033919  0.11820372  0.79221285     0.13900
C2814       C  0.89866995  0.09511794  0.79289352     0.00900
C2815       C  0.91613803  0.09219205  0.81134571     0.15900
C2816       C  0.93591601  0.11237620  0.82712561     0.25300
C2817       C  0.93869204  0.13599619  0.82450533    -0.41100
C2818       C  0.92013885  0.13849304  0.80797391     0.32300
C2819       C  0.88154961  0.07536742  0.76979414     0.01000
F2820       F  0.91462000  0.06990786  0.81270962    -0.13400
F2821       F  0.92184197  0.16080044  0.80528798    -0.13900
C2822       C  0.89143711  0.06949981  0.74189376     0.15900
C2823       C  0.87598657  0.05193028  0.71847291     0.25300
C2824       C  0.85003691  0.03972606  0.72226526    -0.41000
C2825       C  0.84009671  0.04530671  0.75074731     0.32200
C2826       C  0.85579415  0.06312240  0.77426762     0.14000
F2827       F  0.91625900  0.08149259  0.73669363    -0.13400
F2828       F  0.81527403  0.03422596  0.75526672    -0.13900
F2829       F  0.88665336  0.04719598  0.69175880    -0.16200
F2830       F  0.84591451  0.06856690  0.80121736    -0.14700
F2831       F  0.88375304  0.12146670  0.77424780    -0.14700
F2832       F  0.95264578  0.10881988  0.84424194    -0.16100
C2833       C  0.04228189  0.41846043  0.59284725     0.13900
C2834       C  0.02386027  0.39389620  0.59840200     0.00900
C2835       C  0.02909973  0.37923133  0.61993895     0.15900
C2836       C  0.05141696  0.38961439  0.63804115     0.25300
C2837       C  0.06867121  0.41482778  0.63504581    -0.41100
C2838       C  0.06443904  0.42883339  0.61108636     0.32300
C2839       C  0.99820982  0.38490134  0.58615541     0.01000
F2840       F  0.01191222  0.35522781  0.62505801    -0.13400
F2841       F  0.08119814  0.45307438  0.60695007    -0.13900
C2842       C  0.99267713  0.38416685  0.55144985     0.15900
C2843       C  0.96833908  0.37621543  0.54080044     0.25300
C2844       C  0.94916940  0.36885676  0.56472628    -0.41000
C2845       C  0.95501149  0.37029010  0.59940716     0.32200
C2846       C  0.97917040  0.37824460  0.60993590     0.14000
F2847       F  0.01066984  0.39035723  0.52787991    -0.13400
F2848       F  0.93716472  0.36372271  0.62333194    -0.13900
F2849       F  0.96330996  0.37442841  0.50715400    -0.16200
F2850       F  0.98404102  0.37965652  0.64362752    -0.14700
F2851       F  0.03794274  0.43303205  0.57205682    -0.14700
F2852       F  0.05506720  0.37563050  0.66084820    -0.16100
C2853       C  0.05009170  0.35790976  0.78928879     0.13900
C2854       C  0.06390105  0.35595428  0.81600752     0.00900
C2855       C  0.08648276  0.37677658  0.82495033     0.15900
C2856       C  0.09609385  0.39839308  0.80559984     0.25300
C2857       C  0.08306890  0.39970522  0.77742332    -0.41100
C2858       C  0.05956657  0.37963452  0.77023672     0.32300
C2859       C  0.05662461  0.33137172  0.83063222     0.01000
F2860       F  0.10015686  0.37552418  0.85066812    -0.13400
F2861       F  0.04683925  0.38023419  0.74280871    -0.13900
C2862       C  0.05621193  0.31323509  0.80947427     0.15900
C2863       C  0.04868571  0.28970301  0.82184205     0.25300
C2864       C  0.04113113  0.28346266  0.85587545    -0.41000
C2865       C  0.04238862  0.30191776  0.87750558     0.32200
C2866       C  0.05021059  0.32572572  0.86500069     0.14000
F2867       F  0.06289535  0.31827814  0.77641457    -0.13400
F2868       F  0.03458207  0.29654372  0.91010291    -0.13900
F2869       F  0.04812888  0.27273524  0.79998959    -0.16200
F2870       F  0.05043507  0.34290711  0.88603969    -0.14700
F2871       F  0.02808357  0.33818702  0.78031492    -0.14700
F2872       F  0.11883004  0.41759870  0.81311407    -0.16100
C2873       C  0.19823973  0.43395022  0.80683336     0.13900
C2874       C  0.22053263  0.45453504  0.81720994     0.00900
C2875       C  0.22730807  0.47775858  0.80354128     0.15900
C2876       C  0.21181495  0.48048258  0.78068428     0.25300
C2877       C  0.18946767  0.45992264  0.77036960    -0.41100
C2878       C  0.18291872  0.43658608  0.78349654     0.32300
C2879       C  0.23658193  0.45223933  0.84289493     0.01000
F2880       F  0.24922910  0.49782322  0.81196183    -0.13400
F2881       F  0.16131949  0.41636080  0.77443700    -0.13900
C2882       C  0.24613173  0.43644496  0.83780615     0.15900
C2883       C  0.26346882  0.43664975  0.86049151     0.25300
C2884       C  0.27181962  0.45298884  0.88820868    -0.41000
C2885       C  0.26106261  0.46756402  0.89431170     0.32200
C2886       C  0.24350712  0.46704055  0.87206626     0.14000
F2887       F  0.23980545  0.42190027  0.80987912    -0.13400
F2888       F  0.26792270  0.48274137  0.92159338    -0.13900
F2889       F  0.27328333  0.42211787  0.85402879    -0.16200
F2890       F  0.23361519  0.48148421  0.87862060    -0.14700
F2891       F  0.19096640  0.41137425  0.81993949    -0.14700
F2892       F  0.21905325  0.50314899  0.76792066    -0.16100
C2893       C  0.27256544  0.46897466  0.59128774     0.13900
C2894       C  0.25102403  0.46615994  0.57580088     0.00900
C2895       C  0.24928619  0.46477456  0.54040962     0.15900
C2896       C  0.26895288  0.46713868  0.52072601     0.25300
C2897       C  0.29106935  0.47099528  0.53590473    -0.41100
C2898       C  0.29233928  0.47113131  0.57153809     0.32300
C2899       C  0.23076552  0.46588849  0.59605167     0.01000
F2900       F  0.22870464  0.46187800  0.52473857    -0.13400
F2901       F  0.31289637  0.47404096  0.58725283    -0.13900
C2902       C  0.23484162  0.48717468  0.61315131     0.15900
C2903       C  0.21566949  0.48751292  0.63109713     0.25300
C2904       C  0.19181922  0.46638774  0.63266826    -0.41000
C2905       C  0.18767793  0.44521275  0.61473243     0.32200
C2906       C  0.20692762  0.44502521  0.59661270     0.14000
F2907       F  0.25743070  0.50787324  0.61203291    -0.13400
F2908       F  0.16517901  0.42440321  0.61534242    -0.13900
F2909       F  0.22066469  0.50863083  0.64712133    -0.16200
F2910       F  0.20240436  0.42423379  0.58008982    -0.14700
F2911       F  0.27445204  0.46971618  0.62556115    -0.14700
F2912       F  0.26616507  0.46550132  0.48655189    -0.16100
C2913       C  0.10230726  0.52986833  0.60561716     0.13900
C2914       C  0.12339890  0.55144900  0.59430422     0.00900
C2915       C  0.14664262  0.55737743  0.60750459     0.15900
C2916       C  0.14887898  0.54181360  0.63060712     0.25300
C2917       C  0.12780809  0.52043237  0.64232514    -0.41100
C2918       C  0.10443212  0.51477172  0.62985739     0.32300
C2919       C  0.12156719  0.56812095  0.56916809     0.01000
F2920       F  0.16728350  0.57868999  0.59868664    -0.13400
F2921       F  0.08360983  0.49433914  0.64057022    -0.13900
C2922       C  0.10519492  0.57708148  0.57413662     0.15900
C2923       C  0.10613675  0.59535161  0.55283044     0.25300
C2924       C  0.12396432  0.60548041  0.52692308    -0.41000
C2925       C  0.13918769  0.59545508  0.52068446     0.32200
C2926       C  0.13770055  0.57670108  0.54117736     0.14000
F2927       F  0.08935643  0.56934830  0.60083056    -0.13400
F2928       F  0.15296256  0.59976139  0.99002653    -0.13900
F2929       F  0.09079025  0.60429176  0.55905506    -0.16200
F2930       F  0.15256077  0.56732689  0.53413522    -0.14700
F2931       F  0.07967222  0.52308681  0.59273702    -0.14700
F2932       F  0.17170061  0.54817971  0.64233379    -0.16100
C2933       C  0.11530085  0.53661664  0.82318314     0.13900
C2934       C  0.13669535  0.56002325  0.82391402     0.00900
C2935       C  0.15718705  0.56419269  0.80451629     0.15900
C2936       C  0.15631596  0.54561417  0.78406680     0.25300
C2937       C  0.13477668  0.52210212  0.78249781    -0.41100
C2938       C  0.11429241  0.51781477  0.80262778     0.32300
C2939       C  0.13835231  0.58021275  0.84542387     0.01000
F2940       F  0.17812116  0.58658356  0.80505362    -0.13400
F2941       F  0.09309064  0.49565515  0.80197834    -0.13900
C2942       C  0.15224728  0.58664423  0.87531219     0.15900
C2943       C  0.15573763  0.60684083  0.89451910     0.25300
C2944       C  0.14523104  0.62118035  0.88448451    -0.41000
C2945       C  0.13167236  0.61494050  0.85399217     0.32200
C2946       C  0.12819530  0.59456294  0.83477921     0.14000
F2947       F  0.16261622  0.57334729  0.88584200    -0.13400
F2948       F  0.12160799  0.62834829  0.84287171    -0.13900
F2949       F  0.16984749  0.61247958  0.92283538    -0.16200
F2950       F  0.11520559  0.58902870  0.80544343    -0.14700
F2951       F  0.09543810  0.53197005  0.84245745    -0.14700
F2952       F  0.17664821  0.55097303  0.76540834    -0.16100
loop_ 
_geom_bond_atom_site_label_1 
_geom_bond_atom_site_label_2 
_geom_bond_distance 
_geom_bond_site_symmetry_2 
_ccdc_geom_bond_type 
O1           C16   1.255       .  A
O1           Al9   1.878       .  S
C2           O12   1.268       .  A
C2            O3   1.270       .  A
C2         C1401   1.474       .  S
O3           Al5   1.928       .  S
O4            C6   1.252       .  A
O4           Al5   1.866       .  S
Al5          O13   1.908       .  S
Al5          O15   1.942       .  S
Al5          O14   1.788       .  S
C6           O19   1.265       .  A
C6         C1381   1.473       .  S
O7           C17   1.261       .  A
O7           Al9   1.923       .  S
O8           C21   1.267       .  A
O8          Al18   1.896       .  S
Al9          O22   1.919       .  S
Al9          O19   1.939       .  S
Al9          O14   1.789       .  S
O10          C17   1.259       .  A
O10         Al18   1.912       .  S
O11          C20   1.257       .  A
O11         Al18   1.908       .  S
O12         Al18   1.894       .  S
O13          C20   1.258       .  A
O14         Al18   1.787       .  S
O15          C16   1.265       .  A
C16        C1361   1.484       .  S
C17        C1461   1.500       .  S
C20        C1428   1.491       .  S
C21          O22   1.269       .  A
C21        C1441   1.477       .  S
O23          C38   1.274       .  A
O23         Al31   1.951   1_655  S
C24          O34   1.275       .  A
C24          O25   1.261       .  A
C24        C1281   1.485       .  S
O25         Al27   1.867       .  S
O26          C28   1.260       .  A
O26         Al27   1.912       .  S
Al27         O35   1.914   1_455  S
Al27         O37   1.882   1_455  S
Al27         O36   1.781       .  S
C28          O41   1.262       .  A
C28        C1301   1.489       .  S
O29          C39   1.267       .  A
O29         Al31   1.949       .  S
O30          C43   1.268       .  A
O30         Al40   1.942       .  S
Al31         O44   1.867   1_455  S
Al31         O41   1.918       .  S
Al31         O36   1.783       .  S
O32          C39   1.254       .  A
O32         Al40   1.871   1_455  S
O33          C42   1.256       .  A
O33         Al40   1.904       .  S
O34         Al40   1.959   1_455  S
O35          C42   1.258       .  A
O36         Al40   1.783   1_455  S
O37          C38   1.263       .  A
C38        C1321   1.494       .  S
C39        C1388   1.489       .  S
C42        C1341   1.492       .  S
C43          O44   1.255       .  A
C43        C1268   1.480       .  S
O45          C60   1.269       .  A
O45         Al53   1.930       .  S
C46          O56   1.260       .  A
C46        O1523   1.262       .  A
C46        C1188   1.489       .  S
O47        C1522   1.261       .  A
O47         Al49   1.896   1_556  S
O48          C50   1.256       .  A
O48         Al49   1.908       .  S
Al49         O57   1.898       .  S
Al49         O59   1.902       .  S
Al49         O58   1.794       .  S
C50          O63   1.259       .  A
C50        C1208   1.500       .  S
O51          C61   1.267       .  A
O51         Al53   1.934       .  S
O52          C65   1.268       .  A
O52         Al62   1.928       .  S
Al53         O66   1.904       .  S
Al53         O63   1.915       .  S
Al53         O58   1.793       .  S
O54          C61   1.257       .  A
O54         Al62   1.885       .  S
O55          C64   1.262       .  A
O55       Al1538   1.920       .  S
O56       Al1538   1.899       .  S
O57        C1540   1.257       .  A
O58         Al62   1.798       .  S
O59          C60   1.263       .  A
C60        C1221   1.498       .  S
C61        C1261   1.472       .  S
Al62       O1531   1.909   1_554  S
Al62       O1532   1.904   1_554  S
C64        O1533   1.255       .  A
C64        C1241   1.496       .  S
C65          O66   1.260       .  A
C65        C1368   1.490       .  S
O67          C82   1.251       .  A
O67         Al75   1.861       .  S
C68          O78   1.262       .  A
C68          O69   1.280       .  A
C68        C1248   1.497       .  S
O69         Al71   1.977       .  S
O70          C72   1.251       .  A
O70         Al71   1.852       .  S
Al71         O79   1.902       .  S
Al71         O81   1.958       .  S
Al71         O80   1.783       .  S
C72          O85   1.269       .  A
C72        C1161   1.487       .  S
O73          C83   1.255       .  A
O73         Al75   1.904       .  S
O74          C87   1.262       .  A
O74         Al84   1.862       .  S
Al75         O88   1.961       .  S
Al75         O85   1.956       .  S
Al75         O80   1.786       .  S
O76          C83   1.260       .  A
O76         Al84   1.925       .  S
O77          C86   1.259       .  A
O77         Al84   1.926       .  S
O78         Al84   1.858       .  S
O79          C86   1.254       .  A
O80         Al84   1.783       .  S
O81          C82   1.269       .  A
C82        C1108   1.484       .  S
C83        C1228   1.492       .  S
C86        C1141   1.497       .  S
C87          O88   1.277       .  A
C87        C1121   1.486       .  S
O89         C104   1.251       .  A
O89         Al97   1.851       .  S
C90         O100   1.260       .  A
C90          O91   1.277       .  A
C90        C1468   1.500       .  S
O91         Al93   1.974       .  S
O92          C94   1.252       .  A
O92         Al93   1.864       .  S
Al93        O101   1.902       .  S
Al93        O103   1.968       .  S
Al93        O102   1.786       .  S
C94         O107   1.268       .  A
C94        C1168   1.490       .  S
O95         C105   1.256       .  A
O95       Al1573   1.890   1_554  S
O96        C1585   1.263       .  A
O96        Al106   1.878       .  S
Al97        O107   1.956       .  S
Al97       O1571   1.895       .  S
Al97       O1586   1.958       .  S
Al97        O102   1.788       .  S
O98        C1581   1.260       .  A
O98        Al106   1.912       .  S
O99         C108   1.260       .  A
O99        Al106   1.920       .  S
O100       Al106   1.871       .  S
O101        C108   1.257       .  A
O102       Al106   1.782       .  S
O103        C104   1.272       .  A
C104       C1041   1.480       .  S
C105       O1574   1.259       .  A
C105       C1448   1.466       .  S
C108       C1088   1.496       .  S
C109        O110   1.275       .  A
C109       O1572   1.262       .  A
C109       C1061   1.487       .  S
O110      Al1573   1.961   1_554  S
O111        C126   1.255       .  A
O111       Al119   1.873   1_655  S
C112        O122   1.267       .  A
C112        O113   1.282       .  A
C112       C1001   1.495       .  S
O113       Al115   1.977   1_455  S
O114        C116   1.250       .  A
O114       Al115   1.852   1_455  S
Al115       O123   1.904       .  S
Al115       O125   1.937       .  S
Al115       O124   1.783       .  S
C116        O129   1.270       .  A
C116       C1048   1.497       .  S
O117        C127   1.254       .  A
O117       Al119   1.916       .  S
O118        C131   1.267       .  A
O118       Al128   1.875       .  S
Al119       O132   1.978   1_455  S
Al119       O129   1.963       .  S
Al119       O124   1.784   1_455  S
O120        C127   1.254       .  A
O120       Al128   1.904   1_455  S
O121        C130   1.253       .  A
O121       Al128   1.904       .  S
O122       Al128   1.870   1_455  S
O123        C130   1.250       .  A
O124       Al128   1.784       .  S
O125        C126   1.266       .  A
C126       C1101   1.484       .  S
C127       C1021   1.490       .  S
C130        C981   1.488       .  S
C131        O132   1.282       .  A
C131        C961   1.486       .  S
O133        C148   1.274       .  A
O133       Al141   1.961       .  S
C134        O144   1.270       .  A
C134        O135   1.259       .  A
C134        C881   1.479       .  S
O135       Al137   1.868       .  S
O136        C138   1.260       .  A
O136       Al137   1.916       .  S
Al137       O145   1.918       .  S
Al137       O147   1.868       .  S
Al137       O146   1.784       .  S
C138        O151   1.256       .  A
C138        C908   1.490       .  S
O139        C149   1.268       .  A
O139       Al141   1.950       .  S
O140        C153   1.267       .  A
O140       Al150   1.950       .  S
Al141       O154   1.870       .  S
Al141       O151   1.900       .  S
Al141       O146   1.786       .  S
O142        C149   1.255       .  A
O142       Al150   1.875       .  S
O143        C152   1.261       .  A
O143       Al150   1.906       .  S
O144       Al150   1.945       .  S
O145        C152   1.261       .  A
O146       Al150   1.786       .  S
O147        C148   1.260       .  A
C148       C1081   1.489       .  S
C149        C948   1.485       .  S
C152       C1068   1.491       .  S
C153        O154   1.255       .  A
C153        C921   1.489       .  S
O155        C170   1.275       .  A
O155       Al163   1.960   1_545  S
C156        O166   1.275       .  A
C156        O157   1.261       .  A
C156       C1028   1.491       .  S
O157       Al159   1.874       .  S
O158        C160   1.257       .  A
O158       Al159   1.907       .  S
Al159       O167   1.901   1_565  S
Al159       O169   1.875   1_565  S
Al159       O168   1.781       .  S
C160        O173   1.260       .  A
C160       C1008   1.492       .  S
O161        C171   1.269       .  A
O161       Al163   1.950       .  S
O162        C175   1.268       .  A
O162       Al172   1.950       .  S
Al163       O176   1.876   1_565  S
Al163       O173   1.916       .  S
Al163       O168   1.782       .  S
O164        C171   1.254       .  A
O164       Al172   1.866   1_565  S
O165        C174   1.258       .  A
O165       Al172   1.906       .  S
O166       Al172   1.959   1_565  S
O167        C174   1.257       .  A
O168       Al172   1.785   1_565  S
O169        C170   1.262       .  A
C170        C848   1.493       .  S
C171        C928   1.481       .  S
C174        C868   1.485       .  S
C175        O176   1.256       .  A
C175        C821   1.490       .  S
O177        C192   1.268       .  A
O177      Al1661   1.914       .  S
C178        O188   1.269       .  A
C178        O179   1.270       .  A
C178        C748   1.494       .  S
O179       Al181   1.918       .  S
O180       C1658   1.253       .  A
O180       Al181   1.893       .  S
Al181       O189   1.899       .  S
Al181       O191   1.910   1_554  S
Al181       O190   1.784       .  S
C182        O195   1.255       .  A
C182       O1656   1.253       .  A
C182        C768   1.489       .  S
O183        C193   1.269       .  A
O183       Al185   1.944       .  S
O184        C197   1.271       .  A
O184       Al194   1.935       .  S
Al185       O198   1.908       .  S
Al185      O1653   1.912   1_554  S
Al185      O1671   1.900       .  S
Al185       O190   1.782       .  S
O186        C193   1.259       .  A
O186       Al194   1.900       .  S
O187        C196   1.253       .  A
O187       Al194   1.892       .  S
O188       Al194   1.911       .  S
O189        C196   1.253       .  A
O190       Al194   1.785       .  S
O191       C1668   1.267       .  A
C192       O1667   1.267       .  A
C192        C781   1.492       .  S
C193        C941   1.487       .  S
O195      Al1661   1.894       .  S
C196        C808   1.490       .  S
C197        O198   1.264       .  A
C197        C828   1.483       .  S
O199        C214   1.254       .  A
O199       Al207   1.861   1_565  S
C200        O210   1.266       .  A
C200        O201   1.280       .  A
C200       C1348   1.493       .  S
O201       Al203   1.965   1_545  S
O202        C204   1.253       .  A
O202       Al203   1.868   1_545  S
Al203       O211   1.917       .  S
Al203       O213   1.947       .  S
Al203       O212   1.785       .  S
C204        O217   1.267       .  A
C204        C708   1.485       .  S
O205        C215   1.258       .  A
O205       Al207   1.919       .  S
O206        C219   1.265       .  A
O206       Al216   1.880       .  S
Al207       O220   1.964   1_545  S
Al207       O217   1.946       .  S
Al207       O212   1.787   1_545  S
O208        C215   1.255       .  A
O208       Al216   1.903   1_545  S
O209        C218   1.253       .  A
O209       Al216   1.903       .  S
O210       Al216   1.876   1_545  S
O211        C218   1.256       .  A
O212       Al216   1.779       .  S
O213        C214   1.268       .  A
C214        C721   1.483       .  S
C215       C1328   1.493       .  S
C218        C688   1.492       .  S
C219        O220   1.277       .  A
C219        C668   1.475       .  S
O221        C236   1.250       .  A
O221      Al1705   1.855       .  S
C222        O232   1.265       .  A
C222        O223   1.279       .  A
C222        C901   1.492       .  S
O223       Al225   1.964       .  S
O224        C226   1.254       .  A
O224       Al225   1.873       .  S
Al225       O233   1.920       .  S
Al225       O235   1.959       .  S
Al225       O234   1.786       .  S
C226        O239   1.269       .  A
C226        C608   1.493       .  S
O227        C237   1.256       .  A
O227       Al229   1.902       .  S
O228       C1717   1.264       .  A
O228       Al238   1.865       .  S
Al229       O242   1.976   1_556  S
Al229      O1697   1.856   1_556  S
Al229      O1715   1.962       .  S
Al229      O1710   1.787       .  S
O230       C1713   1.255       .  A
O230       Al238   1.911       .  S
O231        C240   1.257       .  A
O231       Al238   1.914       .  S
O232       Al238   1.871       .  S
O233        C240   1.258       .  A
O234       Al238   1.786       .  S
O234      Al1705   1.788       .  S
O235        C236   1.269       .  A
C236        C728   1.489       .  S
C237       O1706   1.256       .  A
C237        C888   1.480   1_556  S
O239      Al1705   1.955       .  S
C240        C641   1.497       .  S
C241        O242   1.278       .  A
C241       O1704   1.262   1_554  A
C241        C628   1.489       .  S
O243        C258   1.255       .  A
O243       Al251   1.868       .  S
C244        O254   1.262       .  A
C244        O245   1.271       .  A
C244        C761   1.482       .  S
O245       Al247   1.945       .  S
O246        C248   1.254       .  A
O246       Al247   1.874       .  S
Al247       O255   1.904       .  S
Al247       O257   1.948       .  S
Al247       O256   1.788       .  S
C248        O261   1.270       .  A
C248        C601   1.490       .  S
O249        C259   1.259       .  A
O249       Al251   1.910       .  S
O250        C263   1.262       .  A
O250       Al260   1.879       .  S
Al251       O264   1.967       .  S
Al251       O261   1.962       .  S
Al251       O256   1.786       .  S
O252        C259   1.259       .  A
O252       Al260   1.911       .  S
O253        C262   1.260       .  A
O253       Al260   1.907       .  S
O254       Al260   1.878       .  S
O255        C262   1.257       .  A
O256       Al260   1.784       .  S
O257        C258   1.268       .  A
C258        C701   1.486       .  S
C259        C741   1.491       .  S
C262       C1181   1.485       .  S
C263        O264   1.275       .  A
C263       C1201   1.497       .  S
O265        C280   1.250       .  A
O265       Al273   1.849       .  S
C266        O276   1.262       .  A
C266        O267   1.277       .  A
C266        C801   1.491       .  S
O267       Al269   1.965       .  S
O268        C270   1.253       .  A
O268       Al269   1.863       .  S
Al269       O277   1.903       .  S
Al269       O279   1.949       .  S
Al269       O278   1.786       .  S
C270        O283   1.271       .  A
C270        C561   1.489       .  S
O271        C281   1.255       .  A
O271       Al273   1.903       .  S
O272        C285   1.262       .  A
O272       Al282   1.866       .  S
Al273       O286   1.970       .  S
Al273       O283   1.963       .  S
Al273       O278   1.786       .  S
O274        C281   1.257       .  A
O274       Al282   1.916       .  S
O275        C284   1.257       .  A
O275       Al282   1.917       .  S
O276       Al282   1.860       .  S
O277        C284   1.256       .  A
O278       Al282   1.784       .  S
O279        C280   1.267       .  A
C280        C588   1.478       .  S
C281        C788   1.485       .  S
C284        C548   1.493       .  S
C285        O286   1.279       .  A
C285        C528   1.498       .  S
O287        C302   1.253       .  A
O287       Al295   1.873       .  S
C288        O298   1.263       .  A
C288        O289   1.278       .  A
C288       C1308   1.489       .  S
O289       Al291   1.971       .  S
O290        C292   1.251       .  A
O290       Al291   1.845       .  S
Al291       O299   1.901       .  S
Al291       O301   1.954       .  S
Al291       O300   1.782       .  S
C292        O305   1.268       .  A
C292        C501   1.482       .  S
O293        C303   1.255       .  A
O293       Al295   1.904       .  S
O294        C307   1.265       .  A
O294       Al304   1.866       .  S
Al295       O308   1.960       .  S
Al295       O305   1.950       .  S
Al295       O300   1.783       .  S
O296        C303   1.256       .  A
O296       Al304   1.913       .  S
O297        C306   1.259       .  A
O297       Al304   1.921       .  S
O298       Al304   1.875       .  S
O299        C306   1.256       .  A
O300       Al304   1.784       .  S
O301        C302   1.268       .  A
C302        C568   1.489       .  S
C303       C1288   1.493       .  S
C306        C841   1.489       .  S
C307        O308   1.277       .  A
C307        C861   1.485       .  S
O309        C324   1.252       .  A
O309       Al317   1.841       .  S
C310        O311   1.276       .  A
C310       O1796   1.261   1_554  A
C310       C1421   1.488       .  S
O311      Al1789   1.966   1_554  S
O312        C314   1.250       .  A
O312       Al313   1.854       .  S
Al313       O323   1.962       .  S
Al313      O1787   1.975       .  S
Al313      O1797   1.907       .  S
Al313       O322   1.785       .  S
C314        O327   1.261       .  A
C314        C508   1.476       .  S
O315        C325   1.253       .  A
O315       Al317   1.891       .  S
O316        C329   1.267       .  A
O316       Al326   1.883       .  S
Al317       O330   1.951       .  S
Al317       O327   1.926       .  S
Al317       O322   1.789       .  S
O318        C325   1.257       .  A
O318       Al326   1.909       .  S
O319       C1804   1.254       .  A
O319       Al326   1.909       .  S
O320       C1786   1.265       .  A
O320       Al326   1.872       .  S
O321        C328   1.259       .  A
O321      Al1789   1.907       .  S
O322       Al326   1.782       .  S
O323        C324   1.272       .  A
C324        C581   1.478       .  S
C325       C1408   1.474       .  S
C328       O1795   1.260       .  A
C328        C481   1.499   1_556  S
C329        O330   1.274       .  A
C329        C461   1.477       .  S
O331        C346   1.276       .  A
O331       Al339   1.967       .  S
C332        O342   1.274       .  A
C332        O333   1.263       .  A
C332        C648   1.490       .  S
O333       Al335   1.881       .  S
O334        C336   1.260       .  A
O334       Al335   1.923       .  S
Al335       O343   1.919       .  S
Al335       O345   1.874       .  S
Al335       O344   1.788       .  S
C336        O349   1.259       .  A
C336        C621   1.501       .  S
O337        C347   1.273       .  A
O337       Al339   1.968       .  S
O338        C351   1.268       .  A
O338       Al348   1.958       .  S
Al339       O352   1.876       .  S
Al339       O349   1.910       .  S
Al339       O344   1.784       .  S
O340        C347   1.254       .  A
O340       Al348   1.870       .  S
O341        C350   1.258       .  A
O341       Al348   1.900       .  S
O342       Al348   1.964       .  S
O343        C350   1.261       .  A
O344       Al348   1.788       .  S
O345        C346   1.261       .  A
C346        C488   1.495       .  S
C347        C421   1.488       .  S
C350        C468   1.491       .  S
C351        O352   1.253       .  A
C351        C441   1.496       .  S
O353        C368   1.275       .  A
O353       Al361   1.964       .  S
C354        O364   1.278       .  A
C354       O1831   1.265       .  A
C354       C1148   1.487       .  S
O355       C1830   1.262   1_554  A
O355       Al357   1.868       .  S
O356        C358   1.259       .  A
O356       Al357   1.910       .  S
Al357       O365   1.917       .  S
Al357       O367   1.862       .  S
Al357       O366   1.781       .  S
C358        O371   1.257       .  A
C358       C1128   1.490       .  S
O359        C369   1.267       .  A
O359       Al361   1.952       .  S
O360        C373   1.271       .  A
O360       Al370   1.959       .  S
Al361       O374   1.867       .  S
Al361       O371   1.911       .  S
Al361       O366   1.791       .  S
O362        C369   1.253       .  A
O362       Al370   1.863       .  S
O363        C372   1.256       .  A
O363      Al1846   1.911       .  S
O364      Al1846   1.967       .  S
O365       C1848   1.257       .  A
O366       Al370   1.781       .  S
O367        C368   1.261       .  A
C368        C541   1.479       .  S
C369        C408   1.488       .  S
Al370      O1839   1.909       .  S
Al370      O1840   1.973   1_554  S
C372       O1841   1.256       .  A
C372        C521   1.489       .  S
C373        O374   1.254       .  A
C373        C448   1.489       .  S
O375        C390   1.281       .  A
O375       Al383   1.979       .  S
C376        O386   1.282       .  A
C376        O377   1.266       .  A
C376        C681   1.493       .  S
O377       Al379   1.866       .  S
O378        C380   1.257       .  A
O378       Al379   1.918       .  S
Al379       O387   1.924       .  S
Al379       O389   1.867       .  S
Al379       O388   1.788       .  S
C380        O393   1.256       .  A
C380        C661   1.493       .  S
O381        C391   1.271       .  A
O381       Al383   1.969       .  S
O382        C395   1.268       .  A
O382       Al392   1.950       .  S
Al383       O396   1.862       .  S
Al383       O393   1.911       .  S
Al383       O388   1.789       .  S
O384        C391   1.251       .  A
O384       Al392   1.858       .  S
O385        C394   1.251       .  A
O385       Al392   1.900       .  S
O386       Al392   1.977       .  S
O387        C394   1.256       .  A
O388       Al392   1.783       .  S
O389        C390   1.266       .  A
C390        C988   1.489       .  S
C391        C428   1.502       .  S
C394        C968   1.500       .  S
C395        O396   1.253       .  A
C395        C401   1.485       .  S
C397        C398   1.414       .  A
C397        C402   1.408       .  A
C397        F415   1.357       .  S
C398        C403   1.497       .  S
C398        C399   1.405       .  A
C399        C400   1.400       .  A
C399        F404   1.358       .  S
C400        C401   1.411       .  A
C400        F416   1.358       .  S
C401        C402   1.404       .  A
C402        F405   1.357       .  S
C403        C406   1.406       .  A
C403       C1886   1.413       .  A
C406        C407   1.401       .  A
C406        F411   1.358       .  S
C407       C1884   1.410       .  A
C407        F413   1.359       .  S
C408        C409   1.407       .  A
C408       C1883   1.410   1_554  A
C409        C410   1.410       .  A
C409        F412   1.357       .  S
C410       C1879   1.413   1_554  A
C410        F414   1.358       .  S
C417        C418   1.416       .  A
C417        C422   1.409       .  A
C417        F435   1.357       .  S
C418        C423   1.508       .  S
C418        C419   1.409       .  A
C419        C420   1.405       .  A
C419        F424   1.357       .  S
C420        C421   1.409       .  A
C420        F436   1.357       .  S
C421        C422   1.404       .  A
C422        F425   1.358       .  S
C423        C426   1.405       .  A
C423        C430   1.416       .  A
C426        C427   1.401       .  A
C426        F431   1.358       .  S
C427        C428   1.416       .  A
C427        F433   1.359       .  S
C428        C429   1.408       .  A
C429        C430   1.414       .  A
C429        F432   1.357       .  S
C430        F434   1.357       .  S
C437        C438   1.404       .  A
C437        C442   1.402       .  A
C437        F455   1.358       .  S
C438        C443   1.500       .  S
C438        C439   1.413       .  A
C439        C440   1.410       .  A
C439        F444   1.358       .  S
C440        C441   1.407       .  A
C440        F456   1.357       .  S
C441        C442   1.412       .  A
C442        F445   1.355       .  S
C443        C446   1.413       .  A
C443        C450   1.406       .  A
C446        C447   1.408       .  A
C446        F451   1.357       .  S
C447        C448   1.404       .  A
C447        F453   1.357       .  S
C448        C449   1.412       .  A
C449        C450   1.403       .  A
C449        F452   1.359       .  S
C450        F454   1.358       .  S
C457        C458   1.403       .  A
C457        C462   1.394       .  A
C457        F475   1.358       .  S
C458        C463   1.481       .  S
C458        C459   1.408       .  A
C459        C460   1.405       .  A
C459        F464   1.358       .  S
C460        C461   1.408       .  A
C460        F476   1.358       .  S
C461        C462   1.406       .  A
C462        F465   1.358       .  S
C463        C466   1.405       .  A
C463        C470   1.402       .  A
C466        C467   1.401       .  A
C466        F471   1.358       .  S
C467        C468   1.412       .  A
C467        F473   1.358       .  S
C468        C469   1.413       .  A
C469        C470   1.398       .  A
C469        F472   1.358       .  S
C470        F474   1.358       .  S
C477        C478   1.408       .  A
C477        C482   1.406       .  A
C477        F495   1.358       .  S
C478        C483   1.495       .  S
C478        C479   1.405       .  A
C479        C480   1.402       .  A
C479        F484   1.358       .  S
C480        C481   1.414       .  A
C480        F496   1.357       .  S
C481        C482   1.413       .  A
C482        F485   1.358       .  S
C483        C486   1.409       .  A
C483        C490   1.406       .  A
C486        C487   1.408       .  A
C486        F491   1.357       .  S
C487        C488   1.409       .  A
C487        F493   1.356       .  S
C488        C489   1.413       .  A
C489        C490   1.400       .  A
C489        F492   1.358       .  S
C490        F494   1.358       .  S
C497        C498   1.400       .  A
C497        C502   1.394       .  A
C497        F515   1.358       .  S
C498        C503   1.484       .  S
C498        C499   1.411       .  A
C499        C500   1.407       .  A
C499        F504   1.357       .  S
C500        C501   1.405       .  A
C500        F516   1.357       .  S
C501        C502   1.412       .  A
C502        F505   1.359       .  S
C503        C506   1.402       .  A
C503        C510   1.410       .  A
C506        C507   1.398       .  A
C506        F511   1.358       .  S
C507       C1984   1.410   1_554  A
C507        F513   1.359       .  S
C508        C509   1.405       .  A
C508       C1983   1.409       .  A
C509       C1986   1.403       .  A
C509        F512   1.358       .  S
C510       C1985   1.404   1_554  A
C510        F514   1.358   1_554  S
C517        C518   1.407       .  A
C517        C522   1.404       .  A
C517        F535   1.358       .  S
C518        C523   1.485       .  S
C518        C519   1.403       .  A
C519        C520   1.402       .  A
C519        F524   1.358       .  S
C520        C521   1.411       .  A
C520       F2012   1.358       .  S
C521        C522   1.409       .  A
C522        F525   1.358       .  S
C523        C526   1.400       .  A
C523        C530   1.406       .  A
C526        C527   1.396       .  A
C526        F531   1.359       .  S
C527        C528   1.417       .  A
C527        F533   1.358       .  S
C528        C529   1.413       .  A
C529        C530   1.409       .  A
C529        F532   1.357       .  S
C530        F534   1.357       .  S
F536       C1996   1.358   1_554  S
C537        C538   1.403       .  A
C537        C542   1.393       .  A
C537        F555   1.358       .  S
C538        C543   1.485       .  S
C538        C539   1.410       .  A
C539        C540   1.407       .  A
C539        F544   1.357       .  S
C540        C541   1.407       .  A
C540        F556   1.357       .  S
C541        C542   1.408       .  A
C542        F545   1.359       .  S
C543        C546   1.404       .  A
C543        C550   1.405       .  A
C546        C547   1.401       .  A
C546        F551   1.358       .  S
C547        C548   1.414       .  A
C547        F553   1.358       .  S
C548        C549   1.412       .  A
C549        C550   1.401       .  A
C549        F552   1.357       .  S
C550        F554   1.358       .  S
C557        C558   1.412       .  A
C557        C562   1.411       .  A
C557        F575   1.358       .  S
C558        C563   1.496       .  S
C558        C559   1.404       .  A
C559        C560   1.402       .  A
C559        F564   1.358       .  S
C560        C561   1.411       .  A
C560        F576   1.358       .  S
C561        C562   1.407       .  A
C562        F565   1.358       .  S
C563        C566   1.411       .  A
C563        C570   1.404       .  A
C566        C567   1.409       .  A
C566        F571   1.358       .  S
C567        C568   1.407       .  A
C567        F573   1.358       .  S
C568        C569   1.409       .  A
C569        C570   1.404       .  A
C569        F572   1.357       .  S
C570        F574   1.358       .  S
C577        C578   1.400       .  A
C577        C582   1.396       .  A
C577        F595   1.358       .  S
C578        C583   1.486       .  S
C578        C579   1.411       .  A
C579        C580   1.408       .  A
C579        F584   1.358       .  S
C580        C581   1.405       .  A
C580        F596   1.358       .  S
C581        C582   1.410       .  A
C582        F585   1.358       .  S
C583        C586   1.401       .  A
C583        C590   1.411       .  A
C586        C587   1.398       .  A
C586        F591   1.358       .  S
C587        C588   1.410       .  A
C587        F593   1.358       .  S
C588        C589   1.404       .  A
C589        C590   1.405       .  A
C589        F592   1.358       .  S
C590        F594   1.358       .  S
C597        C598   1.412       .  A
C597        C602   1.409       .  A
C597        F615   1.357   1_545  S
C598        C603   1.499   1_545  S
C598        C599   1.405       .  A
C599        C600   1.403       .  A
C599        F604   1.358       .  S
C600        C601   1.410       .  A
C600        F616   1.357       .  S
C601        C602   1.406       .  A
C602        F605   1.358       .  S
C603        C606   1.412       .  A
C603        C610   1.405       .  A
C606        C607   1.410       .  A
C606        F611   1.357   1_565  S
C607        C608   1.406       .  A
C607        F613   1.357       .  S
C608        C609   1.412       .  A
C609        C610   1.403       .  A
C609        F612   1.358       .  S
C610        F614   1.358       .  S
C617        C618   1.407       .  A
C617        C622   1.404       .  A
C617        F635   1.358       .  S
C618        C623   1.495       .  S
C618        C619   1.405       .  A
C619        C620   1.405       .  A
C619        F624   1.358       .  S
C620        C621   1.415       .  A
C620        F636   1.358       .  S
C621        C622   1.413       .  A
C622        F625   1.357       .  S
C623        C626   1.404       .  A
C623        C630   1.412       .  A
C626        C627   1.396       .  A
C626        F631   1.358       .  S
C627        C628   1.410       .  A
C627        F633   1.359       .  S
C628        C629   1.408       .  A
C629        C630   1.412       .  A
C629        F632   1.357       .  S
C630        F634   1.357       .  S
C637        C638   1.409       .  A
C637        C642   1.408       .  A
C637        F655   1.358       .  S
C638        C643   1.498       .  S
C638        C639   1.407       .  A
C639        C640   1.403       .  A
C639        F644   1.358       .  S
C640        C641   1.412       .  A
C640        F656   1.358       .  S
C641        C642   1.410       .  A
C642        F645   1.357       .  S
C643        C646   1.411       .  A
C643        C650   1.407       .  A
C646        C647   1.410       .  A
C646        F651   1.358       .  S
C647        C648   1.409       .  A
C647        F653   1.357       .  S
C648        C649   1.407       .  A
C649        C650   1.399       .  A
C649        F652   1.358       .  S
C650        F654   1.358       .  S
C657        C658   1.406       .  A
C657        C662   1.405       .  A
C657        F675   1.358       .  S
C658       C2139   1.491       .  S
C658        C659   1.406       .  A
C659        C660   1.403       .  A
C659       F2140   1.358       .  S
C660        C661   1.411       .  A
C660        F676   1.358       .  S
C661        C662   1.411       .  A
C662        F665   1.357       .  S
C663       C2134   1.482       .  S
C663        C666   1.403   1_556  A
C663        C670   1.407       .  A
F664       C2135   1.358       .  S
C666        C667   1.398       .  A
C666        F671   1.358       .  S
C667        C668   1.406       .  A
C667        F673   1.359       .  S
C668        C669   1.405       .  A
C669        C670   1.406   1_554  A
C669        F672   1.358   1_554  S
C670       F2150   1.357       .  S
F674       C2146   1.357       .  S
C677        C678   1.409       .  A
C677        C682   1.410       .  A
C677        F695   1.357       .  S
C678        C683   1.491       .  S
C678        C679   1.403       .  A
C679        C680   1.396       .  A
C679        F684   1.359       .  S
C680        C681   1.414       .  A
C680        F696   1.359       .  S
C681        C682   1.410       .  A
C682        F685   1.357       .  S
C683        C686   1.408       .  A
C683        C690   1.404       .  A
C686        C687   1.403       .  A
C686        F691   1.358       .  S
C687        C688   1.409       .  A
C687        F693   1.357       .  S
C688        C689   1.414       .  A
C689        C690   1.402       .  A
C689        F692   1.358       .  S
C690        F694   1.358       .  S
C697        C698   1.411       .  A
C697        C702   1.407       .  A
C697        F715   1.358       .  S
C698        C703   1.492       .  S
C698        C699   1.403       .  A
C699        C700   1.398       .  A
C699        F704   1.358       .  S
C700        C701   1.410       .  A
C700        F716   1.358       .  S
C701        C702   1.407       .  A
C702        F705   1.358       .  S
C703        C706   1.411       .  A
C703        C710   1.404       .  A
C706        C707   1.406       .  A
C706        F711   1.358       .  S
C707        C708   1.406       .  A
C707        F713   1.357       .  S
C708        C709   1.410       .  A
C709        C710   1.401       .  A
C709        F712   1.357       .  S
C710        F714   1.358       .  S
C717        C718   1.411       .  A
C717        C722   1.408       .  A
C717        F735   1.358       .  S
C718        C723   1.489       .  S
C718        C719   1.402       .  A
C719        C720   1.396       .  A
C719        F724   1.358       .  S
C720        C721   1.410       .  A
C720        F736   1.358       .  S
C721        C722   1.406       .  A
C722        F725   1.358       .  S
C723        C726   1.410       .  A
C723        C730   1.404       .  A
C726        C727   1.403   1_554  A
C726        F731   1.358   1_554  S
C727       C2204   1.402   1_556  A
C727       F2209   1.357       .  S
C728       C2203   1.406       .  A
C728       C2205   1.412       .  A
C729        C730   1.402       .  A
C729       C2204   1.411       .  A
C729        F732   1.359       .  S
C730        F734   1.358       .  S
F733       C2203   1.357       .  S
C737        C738   1.406       .  A
C737        C742   1.399       .  A
C737        F755   1.358       .  S
C738        C743   1.492       .  S
C738        C739   1.409       .  A
C739        C740   1.404       .  A
C739        F744   1.358       .  S
C740        C741   1.410       .  A
C740        F756   1.358       .  S
C741        C742   1.411       .  A
C742        F745   1.358       .  S
C743        C746   1.406       .  A
C743        C750   1.408       .  A
C746        C747   1.397       .  A
C746        F751   1.358       .  S
C747        C748   1.412       .  A
C747        F753   1.358       .  S
C748        C749   1.413       .  A
C749        C750   1.406       .  A
C749        F752   1.358       .  S
C750        F754   1.358       .  S
C757        C758   1.406       .  A
C757        C762   1.402       .  A
C757        F775   1.358       .  S
C758        C763   1.482       .  S
C758        C759   1.404       .  A
C759        C760   1.397       .  A
C759        F764   1.358       .  S
C760        C761   1.409       .  A
C760        F776   1.358       .  S
C761        C762   1.408       .  A
C762        F765   1.357       .  S
C763        C766   1.404       .  A
C763        C770   1.403       .  A
C766        C767   1.401       .  A
C766        F771   1.358       .  S
C767        C768   1.413       .  A
C767        F773   1.358       .  S
C768        C769   1.411       .  A
C769        C770   1.399       .  A
C769        F772   1.358       .  S
C770        F774   1.358       .  S
C777        C778   1.405       .  A
C777        C782   1.404       .  A
C777        F795   1.358       .  S
C778        C783   1.486       .  S
C778        C779   1.404       .  A
C779        C780   1.400       .  A
C779        F784   1.358       .  S
C780        C781   1.412       .  A
C780       F2272   1.358       .  S
C781        C782   1.412       .  A
C782        F785   1.358       .  S
C783        C786   1.406       .  A
C783        C790   1.405       .  A
C786        C787   1.402       .  A
C786        F791   1.358       .  S
C787        C788   1.408       .  A
C787        F793   1.358       .  S
C788        C789   1.409       .  A
C789        C790   1.403       .  A
C789        F792   1.357       .  S
C790        F794   1.358       .  S
F796       C2256   1.358       .  S
C797        C798   1.405       .  A
C797        C802   1.407       .  A
C797        F815   1.357       .  S
C798        C803   1.478       .  S
C798        C799   1.399       .  A
C799        C800   1.390       .  A
C799        F804   1.359       .  S
C800        C801   1.415       .  A
C800        F816   1.357       .  S
C801        C802   1.413       .  A
C802        F805   1.357       .  S
C803        C806   1.403       .  A
C803        C810   1.402       .  A
C806        C807   1.404       .  A
C806        F811   1.358       .  S
C807        C808   1.414       .  A
C807        F813   1.358       .  S
C808        C809   1.412       .  A
C809        C810   1.395       .  A
C809        F812   1.358       .  S
C810        F814   1.358       .  S
C817        C818   1.410       .  A
C817        C822   1.408       .  A
C817        F835   1.357       .  S
C818        C823   1.489       .  S
C818        C819   1.402       .  A
C819        C820   1.400       .  A
C819        F824   1.358       .  S
C820        C821   1.411       .  A
C820        F836   1.358       .  S
C821        C822   1.408       .  A
C822        F825   1.358       .  S
C823        C826   1.409       .  A
C823       C2306   1.404       .  A
C826        C827   1.410       .  A
C826        F831   1.357       .  S
C827       C2304   1.408       .  A
C827        F833   1.357       .  S
C828        C829   1.409   1_554  A
C828       C2303   1.407   1_554  A
C829        C830   1.395       .  A
C829        F832   1.359       .  S
C830       C2299   1.405       .  A
C830        F834   1.358       .  S
C837        C838   1.405       .  A
C837        C842   1.402       .  A
C837        F855   1.358       .  S
C838       C2319   1.486       .  S
C838        C839   1.405       .  A
C839        C840   1.401       .  A
C839       F2320   1.358       .  S
C840        C841   1.411       .  A
C840        F856   1.358       .  S
C841        C842   1.411       .  A
C842        F845   1.358       .  S
C843       C2314   1.483       .  S
C843        C850   1.401       .  A
C843       C2322   1.405       .  A
F844       C2315   1.358       .  S
C846       C2319   1.407       .  A
C846       C2323   1.407   1_554  A
C846        F851   1.358       .  S
C847        C848   1.412       .  A
C847       C2322   1.408       .  A
C847       F2329   1.357       .  S
C848        C849   1.413       .  A
C849        C850   1.396       .  A
C849        F852   1.358       .  S
C850        F854   1.358       .  S
F853       C2323   1.357       .  S
C857        C858   1.402       .  A
C857        C862   1.392       .  A
C857        F875   1.359       .  S
C858        C863   1.479       .  S
C858        C859   1.405       .  A
C859        C860   1.405       .  A
C859        F864   1.358       .  S
C860        C861   1.411       .  A
C860        F876   1.357       .  S
C861        C862   1.410       .  A
C862        F865   1.359       .  S
C863        C866   1.405       .  A
C863        C870   1.402       .  A
C866        C867   1.403       .  A
C866        F871   1.358       .  S
C867        C868   1.410       .  A
C867        F873   1.358       .  S
C868        C869   1.412       .  A
C869        C870   1.394       .  A
C869        F872   1.358       .  S
C870        F874   1.358       .  S
C877        C878   1.402       .  A
C877        C882   1.394       .  A
C877        F895   1.359       .  S
C878        C883   1.475       .  S
C878        C879   1.404       .  A
C879        C880   1.402       .  A
C879        F884   1.357       .  S
C880        C881   1.409       .  A
C880        F896   1.357       .  S
C881        C882   1.409       .  A
C882        F885   1.359       .  S
C883        C886   1.402       .  A
C883        C890   1.404       .  A
C886        C887   1.397   1_554  A
C886        F891   1.358       .  S
C887        C888   1.410   1_556  A
C887        F893   1.358       .  S
C888        C889   1.408       .  A
C889        C890   1.400       .  A
C889        F892   1.358       .  S
C890        F894   1.358       .  S
C897        C898   1.401       .  A
C897        C902   1.394       .  A
C897        F915   1.359       .  S
C898        C903   1.481       .  S
C898        C899   1.405       .  A
C899        C900   1.407       .  A
C899        F904   1.357       .  S
C900        C901   1.412       .  A
C900        F916   1.357       .  S
C901        C902   1.414       .  A
C902        F905   1.358       .  S
C903        C906   1.404       .  A
C903        C910   1.402       .  A
C906        C907   1.401       .  A
C906        F911   1.358       .  S
C907        C908   1.412       .  A
C907        F913   1.358       .  S
C908        C909   1.412       .  A
C909        C910   1.400       .  A
C909        F912   1.358       .  S
C910        F914   1.358       .  S
C917        C918   1.402       .  A
C917        C922   1.397       .  A
C917        F935   1.358       .  S
C918        C923   1.490       .  S
C918        C919   1.411       .  A
C919        C920   1.408       .  A
C919        F924   1.358       .  S
C920        C921   1.408       .  A
C920        F936   1.358       .  S
C921        C922   1.411       .  A
C922        F925   1.356       .  S
C923        C926   1.410       .  A
C923        C930   1.404       .  A
C926        C927   1.404       .  A
C926        F931   1.358       .  S
C927        C928   1.404       .  A
C927        F933   1.358       .  S
C928        C929   1.410       .  A
C929        C930   1.401       .  A
C929        F932   1.358       .  S
C930        F934   1.358       .  S
C937        C938   1.404       .  A
C937        C942   1.397       .  A
C937        F955   1.358       .  S
C938        C943   1.492   1_545  S
C938        C939   1.411       .  A
C939        C940   1.409       .  A
C939        F944   1.357       .  S
C940        C941   1.407       .  A
C940        F956   1.357       .  S
C941        C942   1.411       .  A
C942        F945   1.359       .  S
C943        C946   1.404       .  A
C943        C950   1.412       .  A
C946        C947   1.401       .  A
C946        F951   1.358       .  S
C947        C948   1.410       .  A
C947        F953   1.357       .  S
C948        C949   1.405       .  A
C949        C950   1.406       .  A
C949        F952   1.358       .  S
C950        F954   1.358   1_565  S
C957        C958   1.406       .  A
C957        C962   1.397       .  A
C957        F975   1.358       .  S
C958        C963   1.496       .  S
C958        C959   1.412       .  A
C959        C960   1.410       .  A
C959        F964   1.357       .  S
C960        C961   1.406       .  A
C960        F976   1.357       .  S
C961        C962   1.408       .  A
C962        F965   1.359       .  S
C963        C966   1.408       .  A
C963        C970   1.406       .  A
C966        C967   1.404       .  A
C966        F971   1.358       .  S
C967        C968   1.414       .  A
C967        F973   1.358       .  S
C968        C969   1.412       .  A
C969        C970   1.404       .  A
C969        F972   1.357       .  S
C970        F974   1.358       .  S
C977        C978   1.404       .  A
C977        C982   1.403       .  A
C977       F2471   1.358       .  S
C978       C2459   1.479       .  S
C978        C979   1.402       .  A
C979        C980   1.397       .  A
C979        F984   1.358       .  S
C980        C981   1.411       .  A
C980        F996   1.358       .  S
C981        C982   1.412       .  A
C982        F985   1.358       .  S
C983       C2454   1.491       .  S
C983        C986   1.411       .  A
C983        C990   1.404       .  A
C986        C987   1.410       .  A
C986        F991   1.357       .  S
C987        C988   1.408       .  A
C987        F993   1.357       .  S
C988        C989   1.411       .  A
C989        C990   1.395       .  A
C989        F992   1.359       .  S
C990       F2470   1.358       .  S
F994       C2466   1.359       .  S
F995       C2453   1.358       .  S
C997        C998   1.414       .  A
C997       C1002   1.413       .  A
C997       F2491   1.357       .  S
C998       C2479   1.500       .  S
C998        C999   1.405   1_556  A
C999       C1000   1.395       .  A
C999       F1004   1.358       .  S
C1000      C1001   1.412       .  A
C1000      F1016   1.359       .  S
C1001      C1002   1.410   1_554  A
C1002      F1005   1.357       .  S
C1003      C2474   1.489       .  S
C1003      C1006   1.404       .  A
C1003      C1010   1.407       .  A
C1006      C1007   1.404       .  A
C1006      F2487   1.358       .  S
C1007      C1008   1.415       .  A
C1007      F1013   1.358       .  S
C1008      C1009   1.408       .  A
C1009      C1010   1.401       .  A
C1009      F1012   1.357       .  S
C1010      F1014   1.358       .  S
F1011      C2482   1.358       .  S
F1015      C2473   1.357       .  S
C1017      C1018   1.403       .  A
C1017      C1022   1.400       .  A
C1017      F1035   1.358       .  S
C1018      C1023   1.484       .  S
C1018      C1019   1.405       .  A
C1019      C1020   1.404       .  A
C1019      F1024   1.358       .  S
C1020      C1021   1.410       .  A
C1020      F1036   1.357       .  S
C1021      C1022   1.412       .  A
C1022      F1025   1.359       .  S
C1023      C1026   1.402       .  A
C1023      C1030   1.406       .  A
C1026      C1027   1.396       .  A
C1026      F1031   1.359       .  S
C1027      C1028   1.413       .  A
C1027      F1033   1.358       .  S
C1028      C1029   1.411       .  A
C1029      C1030   1.407       .  A
C1029      F1032   1.358       .  S
C1030      F1034   1.357       .  S
C1037      C1038   1.413   1_556  A
C1037      C1042   1.406       .  A
C1037      F1055   1.358       .  S
C1038      C1043   1.500       .  S
C1038      C1039   1.407       .  A
C1039      C1040   1.404       .  A
C1039      F1044   1.358       .  S
C1040      C2517   1.410   1_554  A
C1040      F2532   1.358       .  S
C1041      C2516   1.409       .  A
C1041      C2518   1.403       .  A
C1042      C2517   1.404       .  A
C1042      F2521   1.358       .  S
C1043      C1046   1.415       .  A
C1043      C1050   1.402       .  A
F1045      C2518   1.358       .  S
C1046      C1047   1.412       .  A
C1046      F1051   1.357       .  S
C1047      C1048   1.407       .  A
C1047      F1053   1.357       .  S
C1048      C1049   1.416       .  A
C1049      C1050   1.398       .  A
C1049      F1052   1.359       .  S
C1050      F1054   1.358   1_554  S
F1056      C2516   1.358       .  S
C1057      C1058   1.408       .  A
C1057      C1062   1.408       .  A
C1057      F1075   1.357       .  S
C1058      C1063   1.485       .  S
C1058      C1059   1.402       .  A
C1059      C1060   1.394       .  A
C1059      F1064   1.358       .  S
C1060      C1061   1.411       .  A
C1060      F1076   1.358       .  S
C1061      C1062   1.410       .  A
C1062      F1065   1.358       .  S
C1063      C1066   1.404       .  A
C1063      C1070   1.406       .  A
C1066      C1067   1.403       .  A
C1066      F1071   1.358       .  S
C1067      C1068   1.413       .  A
C1067      F1073   1.358       .  S
C1068      C1069   1.410       .  A
C1069      C1070   1.401       .  A
C1069      F1072   1.358       .  S
C1070      F1074   1.358       .  S
C1077      C1078   1.403       .  A
C1077      C1082   1.396       .  A
C1077      F1095   1.358       .  S
C1078      C1083   1.487       .  S
C1078      C1079   1.408       .  A
C1079      C1080   1.408       .  A
C1079      F1084   1.357       .  S
C1080      C1081   1.409       .  A
C1080      F1096   1.356       .  S
C1081      C1082   1.411       .  A
C1082      F1085   1.358       .  S
C1083      C1086   1.404       .  A
C1083      C1090   1.405       .  A
C1086      C1087   1.401       .  A
C1086      F1091   1.358       .  S
C1087      C1088   1.413       .  A
C1087      F1093   1.358       .  S
C1088      C1089   1.414       .  A
C1089      C1090   1.404       .  A
C1089      F1092   1.358       .  S
C1090      F1094   1.358       .  S
C1097      C1098   1.411       .  A
C1097      C1102   1.407       .  A
C1097      F1115   1.357       .  S
C1098      C1103   1.493       .  S
C1098      C1099   1.405       .  A
C1099      C1100   1.401       .  A
C1099      F1104   1.358       .  S
C1100      C1101   1.410       .  A
C1100      F1116   1.358       .  S
C1101      C1102   1.404       .  A
C1102      F1105   1.357       .  S
C1103      C1106   1.411       .  A
C1103      C1110   1.405       .  A
C1106      C1107   1.406       .  A
C1106      F1111   1.358       .  S
C1107      C1108   1.404       .  A
C1107      F1113   1.357       .  S
C1108      C1109   1.410       .  A
C1109      C1110   1.402       .  A
C1109      F1112   1.357       .  S
C1110      F1114   1.358       .  S
C1117      C1118   1.402       .  A
C1117      C1122   1.392       .  A
C1117      F1135   1.359       .  S
C1118      C1123   1.480       .  S
C1118      C1119   1.405       .  A
C1119      C1120   1.406       .  A
C1119      F1124   1.357       .  S
C1120      C1121   1.411       .  A
C1120      F1136   1.357       .  S
C1121      C1122   1.412       .  A
C1122      F1125   1.359       .  S
C1123      C1126   1.405       .  A
C1123      C1130   1.401       .  A
C1126      C1127   1.406       .  A
C1126      F1131   1.358       .  S
C1127      C1128   1.413       .  A
C1127      F1133   1.358       .  S
C1128      C1129   1.411       .  A
C1129      C1130   1.394       .  A
C1129      F1132   1.358       .  S
C1130      F1134   1.358       .  S
C1137      C1138   1.405       .  A
C1137      C1142   1.403       .  A
C1137      F1155   1.358       .  S
C1138      C1143   1.490       .  S
C1138      C1139   1.406       .  A
C1139      C1140   1.403       .  A
C1139      F1144   1.358       .  S
C1140      C1141   1.414       .  A
C1140      F1156   1.358       .  S
C1141      C1142   1.413       .  A
C1142      F1145   1.358       .  S
C1143      C1146   1.404       .  A
C1143      C1150   1.410       .  A
C1146      C1147   1.396       .  A
C1146      F1151   1.358       .  S
C1147      C1148   1.410       .  A
C1147      F2629   1.359       .  S
C1148      C1149   1.408       .  A
C1149      C1150   1.408       .  A
C1149      F1152   1.357       .  S
C1150      F1154   1.357       .  S
F1153      C2623   1.358       .  S
C1157      C1158   1.403       .  A
C1157      C1162   1.398       .  A
C1157      F1175   1.358       .  S
C1158      C1163   1.493   1_655  S
C1158      C1159   1.412       .  A
C1159      C1160   1.408       .  A
C1159      F1164   1.357   1_655  S
C1160      C1161   1.405       .  A
C1160      F1176   1.357       .  S
C1161      C1162   1.412       .  A
C1162      F1165   1.358       .  S
C1163      C1166   1.403       .  A
C1163      C1170   1.412       .  A
C1166      C1167   1.400       .  A
C1166      F1171   1.358       .  S
C1167      C1168   1.413       .  A
C1167      F1173   1.358       .  S
C1168      C1169   1.406       .  A
C1169      C1170   1.407       .  A
C1169      F1172   1.357       .  S
C1170      F1174   1.358   1_455  S
C1177      C1178   1.405       .  A
C1177      C1182   1.403       .  A
C1177      F1195   1.358       .  S
C1178      C1183   1.480       .  S
C1178      C1179   1.402       .  A
C1179      C1180   1.396       .  A
C1179      F1184   1.358       .  S
C1180      C1181   1.410       .  A
C1180      F1196   1.358       .  S
C1181      C1182   1.412       .  A
C1182      F1185   1.358       .  S
C1183      C1186   1.403       .  A
C1183      C1190   1.403       .  A
C1186      C1187   1.402       .  A
C1186      F1191   1.358       .  S
C1187      C1188   1.413       .  A
C1187      F1193   1.357       .  S
C1188      C1189   1.412       .  A
C1189      C1190   1.396       .  A
C1189      F2668   1.358       .  S
C1190      F1194   1.358       .  S
F1192      C2665   1.358       .  S
C1197      C1198   1.407       .  A
C1197      C1202   1.410       .  A
C1197      F1215   1.357       .  S
C1198      C1203   1.489       .  S
C1198      C1199   1.402       .  A
C1199      C1200   1.399       .  A
C1199      F1204   1.358       .  S
C1200      C1201   1.413       .  A
C1200      F1216   1.358       .  S
C1201      C1202   1.412       .  A
C1202      F1205   1.357       .  S
C1203      C1206   1.405       .  A
C1203      C1210   1.403       .  A
C1206      C1207   1.407       .  A
C1206      F1211   1.358       .  S
C1207      C1208   1.414       .  A
C1207      F1213   1.358       .  S
C1208      C1209   1.413       .  A
C1209      C1210   1.403       .  A
C1209      F1212   1.358       .  S
C1210      F1214   1.358       .  S
C1217      C1218   1.404       .  A
C1217      C1222   1.399       .  A
C1217      F1235   1.358       .  S
C1218      C1223   1.494       .  S
C1218      C1219   1.409       .  A
C1219      C1220   1.409       .  A
C1219      F1224   1.357       .  S
C1220      C1221   1.412       .  A
C1220      F1236   1.357       .  S
C1221      C1222   1.414       .  A
C1222      F1225   1.358       .  S
C1223      C1226   1.407       .  A
C1223      C1230   1.407       .  A
C1226      C1227   1.402       .  A
C1226      F1231   1.358       .  S
C1227      C1228   1.409       .  A
C1227      F1233   1.358       .  S
C1228      C1229   1.411       .  A
C1229      C1230   1.406       .  A
C1229      F1232   1.358       .  S
C1230      F1234   1.358       .  S
C1237      C1238   1.402       .  A
C1237      C1242   1.403       .  A
C1237      F1255   1.358       .  S
C1238      C1243   1.488       .  S
C1238      C1239   1.407       .  A
C1239      C1240   1.402       .  A
C1239      F1244   1.358       .  S
C1240      C1241   1.412       .  A
C1240      F1256   1.358       .  S
C1241      C1242   1.415       .  A
C1242      F2721   1.357       .  S
C1243      C1246   1.408       .  A
C1243      C1250   1.400       .  A
F1245      C2718   1.357   1_554  S
C1246      C1247   1.410       .  A
C1246      F1251   1.357       .  S
C1247      C1248   1.412       .  A
C1247      F1253   1.357       .  S
C1248      C1249   1.416       .  A
C1249      C1250   1.394       .  A
C1249      F1252   1.358       .  S
C1250      F1254   1.358       .  S
C1257      C1258   1.405       .  A
C1257      C1262   1.399       .  A
C1257      F1275   1.358       .  S
C1258      C1263   1.487       .  S
C1258      C1259   1.411       .  A
C1259      C2736   1.403       .  A
C1259      F1264   1.358       .  S
C1260      C1261   1.401       .  A
C1260      C2735   1.402       .  A
C1260      F1276   1.358       .  S
C1261      C2738   1.407   1_554  A
C1262      C2737   1.404       .  A
C1262      F2741   1.356       .  S
C1263      C1266   1.410       .  A
C1263      C1270   1.404       .  A
F1265      C2738   1.358       .  S
C1266      C1267   1.403       .  A
C1266      F1271   1.358       .  S
C1267      C1268   1.405       .  A
C1267      F1273   1.358       .  S
C1268      C1269   1.410       .  A
C1269      C1270   1.398       .  A
C1269      F1272   1.359       .  S
C1270      F1274   1.358       .  S
C1277      C1278   1.402       .  A
C1277      C1282   1.394       .  A
C1277      F1295   1.358       .  S
C1278      C1283   1.484       .  S
C1278      C1279   1.409       .  A
C1279      C1280   1.407       .  A
C1279      F1284   1.357       .  S
C1280      C1281   1.408       .  A
C1280      F1296   1.357       .  S
C1281      C1282   1.411       .  A
C1282      F1285   1.359       .  S
C1283      C1286   1.403       .  A
C1283      C1290   1.405       .  A
C1286      C1287   1.400       .  A
C1286      F1291   1.358       .  S
C1287      C1288   1.413       .  A
C1287      F1293   1.358       .  S
C1288      C1289   1.412       .  A
C1289      C1290   1.402       .  A
C1289      F1292   1.358       .  S
C1290      F1294   1.358       .  S
C1297      C1298   1.408       .  A
C1297      C1302   1.403       .  A
C1297      F2791   1.358       .  S
C1298      C2779   1.488       .  S
C1298      C1299   1.403       .  A
C1299      C1300   1.403       .  A
C1299      F1304   1.358       .  S
C1300      C1301   1.412       .  A
C1300      F1316   1.358       .  S
C1301      C1302   1.407       .  A
C1302      F1305   1.358       .  S
C1303      C2774   1.493       .  S
C1303      C1306   1.404   1_556  A
C1303      C2786   1.412       .  A
C1306      C1307   1.397       .  A
C1306      F1311   1.358       .  S
C1307      C1308   1.411       .  A
C1307      F1313   1.358       .  S
C1308      C1309   1.408       .  A
C1309      C2786   1.410   1_554  A
C1309      F2788   1.358   1_554  S
C1310      C2779   1.408       .  A
C1310      C2785   1.412       .  A
C1310      F1314   1.357       .  S
F1312      C2785   1.357       .  S
F1315      C2773   1.358       .  S
C1317      C2794   1.404       .  A
C1317      C2798   1.405   1_554  A
C1317      F1335   1.357       .  S
C1318      C2799   1.481       .  S
C1318      C1319   1.401       .  A
C1318      C2793   1.403       .  A
C1319      C1320   1.397       .  A
C1319      F1324   1.358       .  S
C1320      C1321   1.415       .  A
C1320      F1336   1.358       .  S
C1321      C1322   1.413       .  A
C1322      C2793   1.405       .  A
C1322      F2801   1.358       .  S
C1323      C2794   1.479       .  S
C1323      C1326   1.404       .  A
C1323      C1330   1.399       .  A
F1325      C2798   1.357   1_554  S
C1326      C1327   1.406       .  A
C1326      F1331   1.358       .  S
C1327      C1328   1.412       .  A
C1327      F1333   1.357       .  S
C1328      C1329   1.414       .  A
C1329      C1330   1.397       .  A
C1329      F1332   1.358       .  S
C1330      F2810   1.358       .  S
F1334      C2806   1.358       .  S
C1337      C1338   1.404       .  A
C1337      C1342   1.403       .  A
C1337      F1355   1.358       .  S
C1338      C1343   1.483       .  S
C1338      C1339   1.403       .  A
C1339      C1340   1.400       .  A
C1339      F1344   1.358       .  S
C1340      C1341   1.412       .  A
C1340      F1356   1.358       .  S
C1341      C1342   1.412       .  A
C1342      F1345   1.358       .  S
C1343      C1346   1.401       .  A
C1343      C1350   1.406       .  A
C1346      C1347   1.395       .  A
C1346      F1351   1.358       .  S
C1347      C1348   1.414       .  A
C1347      F1353   1.358       .  S
C1348      C1349   1.413       .  A
C1349      C1350   1.408       .  A
C1349      F1352   1.357       .  S
C1350      F1354   1.357       .  S
C1357      C1358   1.405       .  A
C1357      C1362   1.402       .  A
C1357      F1375   1.358       .  S
C1358      C1363   1.493   1_455  S
C1358      C1359   1.410       .  A
C1359      C1360   1.406       .  A
C1359      F1364   1.357       .  S
C1360      C1361   1.405       .  A
C1360      F1376   1.358       .  S
C1361      C1362   1.409       .  A
C1362      F1365   1.357       .  S
C1363      C1366   1.408       .  A
C1363      C1370   1.406       .  A
C1366      C1367   1.409       .  A
C1366      F1371   1.357   1_655  S
C1367      C1368   1.409       .  A
C1367      F1373   1.357       .  S
C1368      C1369   1.410       .  A
C1369      C1370   1.401       .  A
C1369      F1372   1.358       .  S
C1370      F1374   1.358       .  S
C1377      C1378   1.409       .  A
C1377      C1382   1.403       .  A
C1377      F1395   1.358       .  S
C1378      C1383   1.489       .  S
C1378      C1379   1.405       .  A
C1379      C1380   1.402       .  A
C1379      F1384   1.357       .  S
C1380      C1381   1.406       .  A
C1380      F1396   1.358       .  S
C1381      C1382   1.404       .  A
C1382      F1385   1.358       .  S
C1383      C1386   1.404       .  A
C1383      C1390   1.407       .  A
C1386      C1387   1.399       .  A
C1386      F1391   1.358       .  S
C1387      C1388   1.411       .  A
C1387      F1393   1.359       .  S
C1388      C1389   1.410       .  A
C1389      C1390   1.408       .  A
C1389      F1392   1.357       .  S
C1390      F1394   1.357       .  S
C1397      C1398   1.405       .  A
C1397      C1402   1.400       .  A
C1397      F1415   1.358       .  S
C1398      C1403   1.481       .  S
C1398      C1399   1.406       .  A
C1399      C1400   1.396       .  A
C1399      F1404   1.358       .  S
C1400      C1401   1.404       .  A
C1400      F1416   1.358       .  S
C1401      C1402   1.408       .  A
C1402      F1405   1.358       .  S
C1403      C1406   1.406       .  A
C1403      C1410   1.405       .  A
C1406      C1407   1.400       .  A
C1406      F1411   1.358       .  S
C1407      C1408   1.408       .  A
C1407      F1413   1.358       .  S
C1408      C1409   1.405       .  A
C1409      C1410   1.394       .  A
C1409      F1412   1.358       .  S
C1410      F1414   1.358       .  S
C1417      C1418   1.408       .  A
C1417      C1422   1.407       .  A
C1417      F1435   1.357       .  S
C1418      C1423   1.483       .  S
C1418      C1419   1.400       .  A
C1419      C1420   1.395       .  A
C1419      F1424   1.358       .  S
C1420      C1421   1.413       .  A
C1420      F1436   1.358   1_554  S
C1421      C1422   1.409       .  A
C1422      F1425   1.357       .  S
C1423      C1426   1.402       .  A
C1423      C1430   1.405       .  A
C1426      C1427   1.400       .  A
C1426      F1431   1.358       .  S
C1427      C1428   1.413       .  A
C1427      F1433   1.358       .  S
C1428      C1429   1.411       .  A
C1429      C1430   1.402       .  A
C1429      F1432   1.357       .  S
C1430      F1434   1.358       .  S
C1437      C1438   1.403       .  A
C1437      C1442   1.395       .  A
C1437      F1455   1.358       .  S
C1438      C1443   1.479       .  S
C1438      C1439   1.408       .  A
C1439      C1440   1.397       .  A
C1439      F1444   1.358       .  S
C1440      C1441   1.406       .  A
C1440      F1456   1.358       .  S
C1441      C1442   1.410       .  A
C1442      F1445   1.358       .  S
C1443      C1446   1.409       .  A
C1443      C1450   1.405       .  A
C1446      C1447   1.397       .  A
C1446      F1451   1.358       .  S
C1447      C1448   1.403       .  A
C1447      F1453   1.358       .  S
C1448      C1449   1.404       .  A
C1449      C1450   1.394       .  A
C1449      F2928   1.357   1_554  S
C1450      F1454   1.358       .  S
F1452      C2925   1.358       .  S
C1457      C1458   1.408       .  A
C1457      C1462   1.410       .  A
C1457      F1475   1.358       .  S
C1458      C1463   1.493       .  S
C1458      C1459   1.403       .  A
C1459      C1460   1.400       .  A
C1459      F1464   1.358       .  S
C1460      C1461   1.414       .  A
C1460      F1476   1.358       .  S
C1461      C1462   1.414       .  A
C1462      F1465   1.357       .  S
C1463      C1466   1.402       .  A
C1463      C1470   1.408       .  A
C1466      C1467   1.399       .  A
C1466      F1471   1.358       .  S
C1467      C1468   1.416       .  A
C1467      F1473   1.358       .  S
C1468      C1469   1.411       .  A
C1469      C1470   1.410       .  A
C1469      F1472   1.357       .  S
C1470      F1474   1.357       .  S
O1477      C1492   1.254       .  A
O1477     Al1485   1.873       .  S
C1478      O1488   1.269       .  A
C1478      O1479   1.270       .  A
C1478      C2877   1.481       .  S
O1479     Al1481   1.924       .  S
O1480      C1482   1.254       .  A
O1480     Al1481   1.877       .  S
Al1481     O1489   1.916       .  S
Al1481     O1491   1.937       .  S
Al1481     O1490   1.791       .  S
C1482      O1495   1.265       .  A
C1482      C2857   1.480       .  S
O1483      C1493   1.260       .  A
O1483     Al1485   1.919       .  S
O1484      C1497   1.269       .  A
O1484     Al1494   1.900       .  S
Al1485     O1498   1.932       .  S
Al1485     O1495   1.940       .  S
Al1485     O1490   1.792       .  S
O1486      C1493   1.257       .  A
O1486     Al1494   1.908       .  S
O1487      C1496   1.257       .  A
O1487     Al1494   1.912       .  S
O1488     Al1494   1.903       .  S
O1489      C1496   1.259       .  A
O1490     Al1494   1.787       .  S
O1491      C1492   1.264       .  A
C1492      C2837   1.480       .  S
C1493      C2937   1.499       .  S
C1496      C2904   1.499       .  S
C1497      O1498   1.271       .  A
C1497      C2917   1.485       .  S
O1499      C1514   1.278       .  A
O1499     Al1507   1.965   1_655  S
C1500      O1510   1.277       .  A
C1500      O1501   1.263       .  A
C1500      C2757   1.487       .  S
O1501     Al1503   1.865       .  S
O1502      C1504   1.257       .  A
O1502     Al1503   1.904       .  S
Al1503     O1511   1.910   1_455  S
Al1503     O1513   1.862   1_455  S
Al1503     O1512   1.781       .  S
C1504      O1517   1.263       .  A
C1504      C2777   1.501       .  S
O1505      C1515   1.271       .  A
O1505     Al1507   1.959       .  S
O1506      C1519   1.267       .  A
O1506     Al1516   1.942       .  S
Al1507     O1520   1.873   1_455  S
Al1507     O1517   1.935       .  S
Al1507     O1512   1.780       .  S
O1508      C1515   1.255       .  A
O1508     Al1516   1.861   1_455  S
O1509      C1518   1.255       .  A
O1509     Al1516   1.900       .  S
O1510     Al1516   1.968   1_455  S
O1511      C1518   1.257       .  A
O1512     Al1516   1.778   1_455  S
O1513      C1514   1.260       .  A
C1514      C2797   1.493       .  S
C1515      C2864   1.493       .  S
C1518      C2817   1.485       .  S
C1519      O1520   1.255       .  A
C1519      C2744   1.485       .  S
O1521      C1536   1.267       .  A
O1521     Al1529   1.922       .  S
C1522      O1532   1.261       .  A
C1522      C2664   1.488       .  S
O1523     Al1525   1.903       .  S
O1524      C1526   1.256       .  A
O1524     Al1525   1.901       .  S
Al1525     O1533   1.892       .  S
Al1525     O1535   1.907       .  S
Al1525     O1534   1.791       .  S
C1526      O1539   1.259       .  A
C1526      C2684   1.493       .  S
O1527      C1537   1.266       .  A
O1527     Al1529   1.924       .  S
O1528      C1541   1.267       .  A
O1528     Al1538   1.927       .  S
Al1529     O1542   1.898       .  S
Al1529     O1539   1.918       .  S
Al1529     O1534   1.792       .  S
O1530      C1537   1.259       .  A
O1530     Al1538   1.894       .  S
O1531      C1540   1.260   1_556  A
O1534     Al1538   1.797       .  S
O1535      C1536   1.264       .  A
C1536      C2697   1.498       .  S
C1537      C2737   1.470       .  S
C1540      C2717   1.495   1_554  S
C1541      O1542   1.260       .  A
C1541      C2844   1.487       .  S
O1543      C1558   1.254       .  A
O1543     Al1551   1.872       .  S
C1544      O1554   1.261       .  A
C1544      O1545   1.279       .  A
C1544      C2724   1.497       .  S
O1545     Al1547   1.974       .  S
O1546      C1548   1.250       .  A
O1546     Al1547   1.845       .  S
Al1547     O1555   1.907       .  S
Al1547     O1557   1.962       .  S
Al1547     O1556   1.783       .  S
C1548      O1561   1.270       .  A
C1548      C2637   1.484       .  S
O1549      C1559   1.257       .  A
O1549     Al1551   1.911       .  S
O1550      C1563   1.263       .  A
O1550     Al1560   1.866       .  S
Al1551     O1564   1.961       .  S
Al1551     O1561   1.958       .  S
Al1551     O1556   1.785       .  S
O1552      C1559   1.258       .  A
O1552     Al1560   1.915       .  S
O1553      C1562   1.259       .  A
O1553     Al1560   1.919       .  S
O1554     Al1560   1.864       .  S
O1555      C1562   1.256       .  A
O1556     Al1560   1.782       .  S
O1557      C1558   1.270       .  A
C1558      C2584   1.491       .  S
C1559      C2704   1.490       .  S
C1562      C2617   1.494       .  S
C1563      O1564   1.278       .  A
C1563      C2597   1.488       .  S
O1565      C1580   1.251       .  A
O1565     Al1573   1.856       .  S
C1566      O1576   1.261       .  A
C1566      O1567   1.278       .  A
C1566      C2944   1.498       .  S
O1567     Al1569   1.978       .  S
O1568      C1570   1.251       .  A
O1568     Al1569   1.852       .  S
Al1569     O1577   1.898       .  S
Al1569     O1579   1.971       .  S
Al1569     O1578   1.777       .  S
C1570      O1583   1.269       .  A
C1570      C2644   1.484       .  S
O1571      C1581   1.256       .  A
O1572     Al1582   1.872   1_554  S
Al1573     O1583   1.957       .  S
Al1573     O1578   1.784       .  S
O1574     Al1582   1.903   1_554  S
O1575      C1584   1.258       .  A
O1575     Al1582   1.911       .  S
O1576     Al1582   1.868       .  S
O1577      C1584   1.257       .  A
O1578     Al1582   1.779       .  S
O1579      C1580   1.273       .  A
C1580      C2517   1.481       .  S
C1581      C2924   1.478       .  S
C1584      C2564   1.488       .  S
C1585      O1586   1.273       .  A
C1585      C2537   1.487       .  S
O1587      C1602   1.254       .  A
O1587     Al1595   1.870   1_655  S
C1588      O1598   1.265       .  A
C1588      O1589   1.285       .  A
C1588      C2477   1.496       .  S
O1589     Al1591   1.990   1_455  S
O1590      C1592   1.250       .  A
O1590     Al1591   1.851   1_455  S
Al1591     O1599   1.903       .  S
Al1591     O1601   1.958       .  S
Al1591     O1600   1.778   1_655  S
C1592      O1605   1.270       .  A
C1592      C2524   1.493       .  S
O1593      C1603   1.253       .  A
O1593     Al1595   1.912       .  S
O1594      C1607   1.265       .  A
O1594     Al1604   1.858   1_655  S
Al1595     O1608   1.986       .  S
Al1595     O1605   1.964       .  S
Al1595     O1600   1.786       .  S
O1596      C1603   1.254       .  A
O1596     Al1604   1.902       .  S
O1597      C1606   1.253       .  A
O1597     Al1604   1.911   1_655  S
O1598     Al1604   1.857       .  S
O1599      C1606   1.252       .  A
O1600     Al1604   1.785       .  S
O1601      C1602   1.271       .  A
C1602      C2577   1.496       .  S
C1603      C2497   1.490       .  S
C1606      C2457   1.491       .  S
C1607      O1608   1.284   1_655  A
C1607      C2437   1.483       .  S
O1609      C1624   1.273       .  A
O1609     Al1617   1.955       .  S
C1610      O1620   1.274       .  A
C1610      O1611   1.259       .  A
C1610      C2357   1.487       .  S
O1611     Al1613   1.865       .  S
O1612      C1614   1.257       .  A
O1612     Al1613   1.903       .  S
Al1613     O1621   1.906       .  S
Al1613     O1623   1.863       .  S
Al1613     O1622   1.782       .  S
C1614      O1627   1.260       .  A
C1614      C2384   1.491       .  S
O1615      C1625   1.267       .  A
O1615     Al1617   1.950       .  S
O1616      C1629   1.270       .  A
O1616     Al1626   1.956       .  S
Al1617     O1630   1.880       .  S
Al1617     O1627   1.916       .  S
Al1617     O1622   1.788       .  S
O1618      C1625   1.253       .  A
O1618     Al1626   1.867       .  S
O1619      C1628   1.259       .  A
O1619     Al1626   1.912       .  S
O1620     Al1626   1.957       .  S
O1621      C1628   1.258       .  A
O1622     Al1626   1.787       .  S
O1623      C1624   1.260       .  A
C1624      C2557   1.477       .  S
C1625      C2424   1.481       .  S
C1628      C2544   1.484       .  S
C1629      O1630   1.257       .  A
C1629      C2397   1.493       .  S
O1631      C1646   1.273       .  A
O1631     Al1639   1.955   1_545  S
C1632      O1642   1.270   1_565  A
C1632      O1633   1.260       .  A
C1632      C2504   1.486       .  S
O1633     Al1635   1.875   1_565  S
O1634      C1636   1.262       .  A
O1634     Al1635   1.928   1_565  S
Al1635     O1643   1.929       .  S
Al1635     O1645   1.875       .  S
Al1635     O1644   1.784       .  S
C1636      O1649   1.261       .  A
C1636      C2484   1.499       .  S
O1637      C1647   1.272       .  A
O1637     Al1639   1.964       .  S
O1638      C1651   1.265       .  A
O1638     Al1648   1.938       .  S
Al1639     O1652   1.877   1_565  S
Al1639     O1649   1.912       .  S
Al1639     O1644   1.783   1_565  S
O1640      C1647   1.255       .  A
O1640     Al1648   1.872   1_565  S
O1641      C1650   1.259       .  A
O1641     Al1648   1.898       .  S
O1642     Al1648   1.943       .  S
O1643      C1650   1.262       .  A
O1644     Al1648   1.787       .  S
O1645      C1646   1.261       .  A
C1646      C2324   1.490       .  S
C1647      C2404   1.492       .  S
C1650      C2344   1.493       .  S
C1651      O1652   1.255       .  A
C1651      C2297   1.481       .  S
O1653      C1668   1.267       .  A
C1654      O1664   1.270       .  A
C1654      O1655   1.268       .  A
C1654      C2224   1.498       .  S
O1655     Al1657   1.917       .  S
O1656     Al1657   1.896       .  S
Al1657     O1665   1.899       .  S
Al1657     O1667   1.914       .  S
Al1657     O1666   1.788       .  S
C1658      O1671   1.256       .  A
C1658      C2244   1.487   1_554  S
O1659      C1669   1.269       .  A
O1659     Al1661   1.942       .  S
O1660      C1673   1.270       .  A
O1660     Al1670   1.943       .  S
Al1661     O1674   1.909       .  S
Al1661     O1666   1.787       .  S
O1662      C1669   1.260       .  A
O1662     Al1670   1.899       .  S
O1663      C1672   1.252       .  A
O1663     Al1670   1.888       .  S
O1664     Al1670   1.924       .  S
O1665      C1672   1.253       .  A
O1666     Al1670   1.785       .  S
C1668      C2257   1.490       .  S
C1669      C2417   1.487       .  S
C1672      C2284   1.485       .  S
C1673      O1674   1.261       .  A
C1673      C2304   1.484       .  S
O1675      C1690   1.254       .  A
O1675     Al1683   1.867   1_565  S
C1676      O1686   1.260       .  A
C1676      O1677   1.274       .  A
C1676      C2824   1.487       .  S
O1677     Al1679   1.955   1_545  S
O1678      C1680   1.254       .  A
O1678     Al1679   1.877   1_545  S
Al1679     O1687   1.911       .  S
Al1679     O1689   1.956       .  S
Al1679     O1688   1.791   1_565  S
C1680      O1693   1.269       .  A
C1680      C2184   1.491       .  S
O1681      C1691   1.258       .  A
O1681     Al1683   1.908       .  S
O1682      C1695   1.262       .  A
O1682     Al1692   1.875   1_565  S
Al1683     O1696   1.964   1_545  S
Al1683     O1693   1.956       .  S
Al1683     O1688   1.786       .  S
O1684      C1691   1.256       .  A
O1684     Al1692   1.905       .  S
O1685      C1694   1.256       .  A
O1685     Al1692   1.901   1_565  S
O1686     Al1692   1.865       .  S
O1687      C1694   1.259       .  A
O1688     Al1692   1.786       .  S
O1689      C1690   1.269       .  A
C1690      C2197   1.484       .  S
C1691      C2804   1.486       .  S
C1694      C2164   1.483       .  S
C1695      O1696   1.275       .  A
C1695      C2144   1.489       .  S
O1697      C1712   1.250   1_554  A
C1698      O1708   1.265       .  A
C1698      O1699   1.276       .  A
C1698      C2377   1.482       .  S
O1699     Al1701   1.959       .  S
O1700      C1702   1.256       .  A
O1700     Al1701   1.882       .  S
Al1701     O1709   1.918       .  S
Al1701     O1711   1.951       .  S
Al1701     O1710   1.783       .  S
C1702      O1715   1.270       .  A
C1702      C2084   1.494       .  S
O1703      C1713   1.253       .  A
O1703     Al1705   1.901       .  S
O1704     Al1714   1.868       .  S
Al1705     O1718   1.970       .  S
O1706     Al1714   1.901       .  S
O1707      C1716   1.254       .  A
O1707     Al1714   1.893       .  S
O1708     Al1714   1.872       .  S
O1709      C1716   1.259       .  A
O1710     Al1714   1.783       .  S
O1711      C1712   1.269       .  A
C1712      C2204   1.479   1_556  S
C1713      C2364   1.486       .  S
C1716      C2117   1.485       .  S
C1717      O1718   1.279       .  A
C1717      C2104   1.493       .  S
O1719      C1734   1.254       .  A
O1719     Al1727   1.872       .  S
C1720      O1730   1.261       .  A
C1720      O1721   1.275       .  A
C1720      C2237   1.489       .  S
O1721     Al1723   1.963       .  S
O1722      C1724   1.254       .  A
O1722     Al1723   1.871       .  S
Al1723     O1731   1.901       .  S
Al1723     O1733   1.958       .  S
Al1723     O1732   1.788       .  S
C1724      O1737   1.272       .  A
C1724      C2077   1.497       .  S
O1725      C1735   1.259       .  A
O1725     Al1727   1.911       .  S
O1726      C1739   1.261       .  A
O1726     Al1736   1.875       .  S
Al1727     O1740   1.971       .  S
Al1727     O1737   1.973       .  S
Al1727     O1732   1.788       .  S
O1728      C1735   1.259       .  A
O1728     Al1736   1.917       .  S
O1729      C1738   1.260       .  A
O1729     Al1736   1.911       .  S
O1730     Al1736   1.873       .  S
O1731      C1738   1.255       .  A
O1732     Al1736   1.786       .  S
O1733      C1734   1.269       .  A
C1734      C2177   1.493       .  S
C1735      C2217   1.490       .  S
C1738      C2657   1.488       .  S
C1739      O1740   1.277       .  A
C1739      C2677   1.501       .  S
O1741      C1756   1.250       .  A
O1741     Al1749   1.851       .  S
C1742      O1752   1.265       .  A
C1742      O1743   1.279       .  A
C1742      C2277   1.484       .  S
O1743     Al1745   1.964       .  S
O1744      C1746   1.252       .  A
O1744     Al1745   1.858       .  S
Al1745     O1753   1.898       .  S
Al1745     O1755   1.945       .  S
Al1745     O1754   1.786       .  S
C1746      O1759   1.272       .  A
C1746      C2037   1.493       .  S
O1747      C1757   1.253       .  A
O1747     Al1749   1.902       .  S
O1748      C1761   1.266       .  A
O1748     Al1758   1.870       .  S
Al1749     O1762   1.982       .  S
Al1749     O1759   1.966       .  S
Al1749     O1754   1.783       .  S
O1750      C1757   1.255       .  A
O1750     Al1758   1.913       .  S
O1751      C1760   1.256       .  A
O1751     Al1758   1.918       .  S
O1752     Al1758   1.863       .  S
O1753      C1760   1.252       .  A
O1754     Al1758   1.787       .  S
O1755      C1756   1.265       .  A
C1756      C2064   1.481       .  S
C1757      C2264   1.486       .  S
C1760      C2024   1.493       .  S
C1761      O1762   1.283       .  A
C1761      C2004   1.502       .  S
O1763      C1778   1.253       .  A
O1763     Al1771   1.860       .  S
C1764      O1774   1.263       .  A
C1764      O1765   1.278       .  A
C1764      C2784   1.501       .  S
O1765     Al1767   1.972       .  S
O1766      C1768   1.251       .  A
O1766     Al1767   1.851       .  S
Al1767     O1775   1.905       .  S
Al1767     O1777   1.968       .  S
Al1767     O1776   1.782       .  S
C1768      O1781   1.264       .  A
C1768      C1977   1.471       .  S
O1769      C1779   1.254       .  A
O1769     Al1771   1.893       .  S
O1770      C1783   1.266       .  A
O1770     Al1780   1.876       .  S
Al1771     O1784   1.953       .  S
Al1771     O1781   1.933       .  S
Al1771     O1776   1.783       .  S
O1772      C1779   1.261       .  A
O1772     Al1780   1.927       .  S
O1773      C1782   1.259       .  A
O1773     Al1780   1.915       .  S
O1774     Al1780   1.873       .  S
O1775      C1782   1.258       .  A
O1776     Al1780   1.780       .  S
O1777      C1778   1.272       .  A
C1778      C2044   1.492       .  S
C1779      C2764   1.492       .  S
C1782      C2317   1.489       .  S
C1783      O1784   1.272       .  A
C1783      C2337   1.488       .  S
O1785      C1800   1.250       .  A
O1785     Al1793   1.851       .  S
C1786      O1787   1.281       .  A
C1786      C2897   1.495       .  S
O1788      C1790   1.251       .  A
O1788     Al1789   1.853       .  S
Al1789     O1799   1.958       .  S
Al1789     O1798   1.785       .  S
C1790      O1803   1.268       .  A
C1790      C1984   1.477       .  S
O1791      C1801   1.255       .  A
O1791     Al1793   1.900       .  S
O1792      C1805   1.266       .  A
O1792     Al1802   1.874       .  S
Al1793     O1806   1.955       .  S
Al1793     O1803   1.952       .  S
Al1793     O1798   1.785       .  S
O1794      C1801   1.259       .  A
O1794     Al1802   1.914       .  S
O1795     Al1802   1.928       .  S
O1796     Al1802   1.867       .  S
O1797      C1804   1.254       .  A
O1798     Al1802   1.778       .  S
O1799      C1800   1.269       .  A
C1800      C2057   1.478       .  S
C1801      C2884   1.481       .  S
C1804      C1957   1.491       .  S
C1805      O1806   1.274       .  A
C1805      C1937   1.483       .  S
O1807      C1822   1.272       .  A
O1807     Al1815   1.957       .  S
C1808      O1818   1.270       .  A
C1808      O1809   1.259       .  A
C1808      C2124   1.481       .  S
O1809     Al1811   1.871       .  S
O1810      C1812   1.263       .  A
O1810     Al1811   1.923       .  S
Al1811     O1819   1.919       .  S
Al1811     O1821   1.871       .  S
Al1811     O1820   1.783       .  S
C1812      O1825   1.259       .  A
C1812      C2097   1.493       .  S
O1813      C1823   1.270       .  A
O1813     Al1815   1.962       .  S
O1814      C1827   1.269       .  A
O1814     Al1824   1.958       .  S
Al1815     O1828   1.878       .  S
Al1815     O1825   1.900       .  S
Al1815     O1820   1.782       .  S
O1816      C1823   1.254       .  A
O1816     Al1824   1.871       .  S
O1817      C1826   1.260       .  A
O1817     Al1824   1.898       .  S
O1818     Al1824   1.949       .  S
O1819      C1826   1.263       .  A
O1820     Al1824   1.784       .  S
O1821      C1822   1.258       .  A
C1822      C1964   1.487       .  S
C1823      C1897   1.484       .  S
C1826      C1944   1.484       .  S
C1827      O1828   1.255       .  A
C1827      C1917   1.487       .  S
O1829      C1844   1.277       .  A
O1829     Al1837   1.967       .  S
C1830      O1840   1.279       .  A
C1830      C2624   1.493       .  S
O1831     Al1833   1.874       .  S
O1832      C1834   1.257       .  A
O1832     Al1833   1.910       .  S
Al1833     O1841   1.909       .  S
Al1833     O1843   1.875       .  S
Al1833     O1842   1.782       .  S
C1834      O1847   1.255       .  A
C1834      C2604   1.487       .  S
O1835      C1845   1.266       .  A
O1835     Al1837   1.945       .  S
O1836      C1849   1.271       .  A
O1836     Al1846   1.957       .  S
Al1837     O1850   1.866       .  S
Al1837     O1847   1.905       .  S
Al1837     O1842   1.786       .  S
O1838      C1845   1.252       .  A
O1838     Al1846   1.865       .  S
O1839      C1848   1.256       .  A
O1842     Al1846   1.782       .  S
O1843      C1844   1.265       .  A
C1844      C2017   1.479       .  S
C1845      C1884   1.484       .  S
C1848      C1997   1.494   1_554  S
C1849      O1850   1.255       .  A
C1849      C1924   1.492       .  S
O1851      C1866   1.278       .  A
O1851     Al1859   1.964       .  S
C1852      O1862   1.280       .  A
C1852      O1853   1.264       .  A
C1852      C2157   1.492       .  S
O1853     Al1855   1.861       .  S
O1854      C1856   1.257       .  A
O1854     Al1855   1.914       .  S
Al1855     O1863   1.918       .  S
Al1855     O1865   1.867       .  S
Al1855     O1864   1.782       .  S
C1856      O1869   1.257       .  A
C1856      C2137   1.485       .  S
O1857      C1867   1.266       .  A
O1857     Al1859   1.949       .  S
O1858      C1871   1.269       .  A
O1858     Al1868   1.950       .  S
Al1859     O1872   1.868       .  S
Al1859     O1869   1.918       .  S
Al1859     O1864   1.787       .  S
O1860      C1867   1.252       .  A
O1860     Al1868   1.863       .  S
O1861      C1870   1.256       .  A
O1861     Al1868   1.911       .  S
O1862     Al1868   1.969       .  S
O1863      C1870   1.255       .  A
O1864     Al1868   1.783       .  S
O1865      C1866   1.266       .  A
C1866      C2464   1.486       .  S
C1867      C1904   1.491       .  S
C1870      C2444   1.500       .  S
C1871      O1872   1.254       .  A
C1871      C1877   1.483       .  S
C1873      C1874   1.412       .  A
C1873      C1878   1.406       .  A
C1873      F1891   1.358       .  S
C1874      C1879   1.493       .  S
C1874      C1875   1.404       .  A
C1875      C1876   1.401       .  A
C1875      F1880   1.358       .  S
C1876      C1877   1.409       .  A
C1876      F1892   1.357       .  S
C1877      C1878   1.404       .  A
C1878      F1881   1.357       .  S
C1879      C1882   1.402       .  A
C1882      C1883   1.398       .  A
C1882      F1887   1.358       .  S
C1883      F1889   1.355       .  S
C1884      C1885   1.404       .  A
C1885      C1886   1.407       .  A
C1885      F1888   1.357       .  S
C1886      F1890   1.357       .  S
C1893      C1894   1.412       .  A
C1893      C1898   1.406       .  A
C1893      F1911   1.358       .  S
C1894      C1899   1.495       .  S
C1894      C1895   1.405       .  A
C1895      C1896   1.402       .  A
C1895      F1900   1.358       .  S
C1896      C1897   1.410       .  A
C1896      F1912   1.357       .  S
C1897      C1898   1.404       .  A
C1898      F1901   1.358       .  S
C1899      C1902   1.403       .  A
C1899      C1906   1.413       .  A
C1902      C1903   1.398       .  A
C1902      F1907   1.358       .  S
C1903      C1904   1.412       .  A
C1903      F1909   1.357       .  S
C1904      C1905   1.407       .  A
C1905      C1906   1.409       .  A
C1905      F1908   1.357       .  S
C1906      F1910   1.358       .  S
C1913      C1914   1.406       .  A
C1913      C1918   1.404       .  A
C1913      F1931   1.358       .  S
C1914      C1919   1.495       .  S
C1914      C1915   1.411       .  A
C1915      C1916   1.406       .  A
C1915      F1920   1.358       .  S
C1916      C1917   1.405       .  A
C1916      F1932   1.358       .  S
C1917      C1918   1.410       .  A
C1918      F1921   1.358       .  S
C1919      C1922   1.411       .  A
C1919      C1926   1.404       .  A
C1922      C1923   1.409       .  A
C1922      F1927   1.357       .  S
C1923      C1924   1.407       .  A
C1923      F1929   1.357       .  S
C1924      C1925   1.413       .  A
C1925      C1926   1.401       .  A
C1925      F1928   1.359       .  S
C1926      F1930   1.358       .  S
C1933      C1934   1.403       .  A
C1933      C1938   1.394       .  A
C1933      F1951   1.358       .  S
C1934      C1939   1.481       .  S
C1934      C1935   1.405       .  A
C1935      C1936   1.405       .  A
C1935      F1940   1.358       .  S
C1936      C1937   1.411       .  A
C1936      F1952   1.357       .  S
C1937      C1938   1.409       .  A
C1938      F1941   1.359       .  S
C1939      C1942   1.404       .  A
C1939      C1946   1.404       .  A
C1942      C1943   1.401       .  A
C1942      F1947   1.358       .  S
C1943      C1944   1.410       .  A
C1943      F1949   1.358       .  S
C1944      C1945   1.410       .  A
C1945      C1946   1.399       .  A
C1945      F1948   1.358       .  S
C1946      F1950   1.358       .  S
C1953      C1954   1.405       .  A
C1953      C1958   1.403       .  A
C1953      F1971   1.358       .  S
C1954      C1959   1.484       .  S
C1954      C1955   1.403       .  A
C1955      C1956   1.403       .  A
C1955      F1960   1.358       .  S
C1956      C1957   1.412       .  A
C1956      F1972   1.358       .  S
C1957      C1958   1.410       .  A
C1958      F1961   1.358       .  S
C1959      C1962   1.406       .  A
C1959      C1966   1.403       .  A
C1962      C1963   1.405       .  A
C1962      F1967   1.357       .  S
C1963      C1964   1.408       .  A
C1963      F1969   1.357       .  S
C1964      C1965   1.412       .  A
C1965      C1966   1.400       .  A
C1965      F1968   1.359       .  S
C1966      F1970   1.358       .  S
C1973      C1974   1.402       .  A
C1973      C1978   1.395       .  A
C1973      F1991   1.358       .  S
C1974      C1979   1.479       .  S
C1974      C1975   1.409       .  A
C1975      C1976   1.400       .  A
C1975      F1980   1.358       .  S
C1976      C1977   1.402       .  A
C1976      F1992   1.358       .  S
C1977      C1978   1.409       .  A
C1978      F1981   1.359       .  S
C1979      C1982   1.400       .  A
C1979      C1986   1.410       .  A
C1982      C1983   1.393       .  A
C1982      F1987   1.358       .  S
C1983      F1989   1.358       .  S
C1984      C1985   1.403       .  A
C1985      F1988   1.358       .  S
C1986      F1990   1.358       .  S
C1993      C1994   1.407       .  A
C1993      C1998   1.404       .  A
C1993      F2011   1.358       .  S
C1994      C1999   1.492       .  S
C1994      C1995   1.405       .  A
C1995      C1996   1.405       .  A
C1995      F2000   1.357       .  S
C1996      C1997   1.412       .  A
C1997      C1998   1.410       .  A
C1998      F2001   1.358       .  S
C1999      C2002   1.401       .  A
C1999      C2006   1.408       .  A
C2002      C2003   1.397       .  A
C2002      F2007   1.359       .  S
C2003      C2004   1.417       .  A
C2003      F2009   1.358       .  S
C2004      C2005   1.413       .  A
C2005      C2006   1.412       .  A
C2005      F2008   1.357       .  S
C2006      F2010   1.357       .  S
C2013      C2014   1.407       .  A
C2013      C2018   1.395       .  A
C2013      F2031   1.358       .  S
C2014      C2019   1.494       .  S
C2014      C2015   1.413       .  A
C2015      C2016   1.408       .  A
C2015      F2020   1.358       .  S
C2016      C2017   1.405       .  A
C2016      F2032   1.357       .  S
C2017      C2018   1.405       .  A
C2018      F2021   1.359       .  S
C2019      C2022   1.407       .  A
C2019      C2026   1.408       .  A
C2022      C2023   1.401       .  A
C2022      F2027   1.357       .  S
C2023      C2024   1.411       .  A
C2023      F2029   1.358       .  S
C2024      C2025   1.411       .  A
C2025      C2026   1.401       .  A
C2025      F2028   1.358       .  S
C2026      F2030   1.358       .  S
C2033      C2034   1.417       .  A
C2033      C2038   1.410       .  A
C2033      F2051   1.357       .  S
C2034      C2039   1.506       .  S
C2034      C2035   1.407       .  A
C2035      C2036   1.403       .  A
C2035      F2040   1.358       .  S
C2036      C2037   1.413       .  A
C2036      F2052   1.359       .  S
C2037      C2038   1.404       .  A
C2038      F2041   1.357       .  S
C2039      C2042   1.417       .  A
C2039      C2046   1.407       .  A
C2042      C2043   1.411       .  A
C2042      F2047   1.358       .  S
C2043      C2044   1.406       .  A
C2043      F2049   1.358       .  S
C2044      C2045   1.411       .  A
C2045      C2046   1.401       .  A
C2045      F2048   1.359       .  S
C2046      F2050   1.358       .  S
C2053      C2054   1.402       .  A
C2053      C2058   1.399       .  A
C2053      F2071   1.358       .  S
C2054      C2059   1.487       .  S
C2054      C2055   1.410       .  A
C2055      C2056   1.406       .  A
C2055      F2060   1.358       .  S
C2056      C2057   1.405       .  A
C2056      F2072   1.358       .  S
C2057      C2058   1.409       .  A
C2058      F2061   1.358       .  S
C2059      C2062   1.401       .  A
C2059      C2066   1.412       .  A
C2062      C2063   1.397       .  A
C2062      F2067   1.358       .  S
C2063      C2064   1.411       .  A
C2063      F2069   1.358       .  S
C2064      C2065   1.404       .  A
C2065      C2066   1.407       .  A
C2065      F2068   1.357       .  S
C2066      F2070   1.357       .  S
C2073      C2074   1.412       .  A
C2073      C2078   1.413       .  A
C2073      F2091   1.357   1_545  S
C2074      C2079   1.502   1_545  S
C2074      C2075   1.405       .  A
C2075      C2076   1.404       .  A
C2075      F2080   1.358       .  S
C2076      C2077   1.412       .  A
C2076      F2092   1.358       .  S
C2077      C2078   1.408       .  A
C2078      F2081   1.357       .  S
C2079      C2082   1.412       .  A
C2079      C2086   1.406       .  A
C2082      C2083   1.411       .  A
C2082      F2087   1.357   1_565  S
C2083      C2084   1.407       .  A
C2083      F2089   1.357       .  S
C2084      C2085   1.410       .  A
C2085      C2086   1.406       .  A
C2085      F2088   1.357       .  S
C2086      F2090   1.358       .  S
C2093      C2094   1.404       .  A
C2093      C2098   1.401       .  A
C2093      F2111   1.358       .  S
C2094      C2099   1.482       .  S
C2094      C2095   1.402       .  A
C2095      C2096   1.401       .  A
C2095      F2100   1.358       .  S
C2096      C2097   1.413       .  A
C2096      F2112   1.358       .  S
C2097      C2098   1.412       .  A
C2098      F2101   1.358       .  S
C2099      C2102   1.400       .  A
C2099      C2106   1.406       .  A
C2102      C2103   1.393       .  A
C2102      F2107   1.359       .  S
C2103      C2104   1.415       .  A
C2103      F2109   1.359       .  S
C2104      C2105   1.412       .  A
C2105      C2106   1.409       .  A
C2105      F2108   1.357       .  S
C2106      F2110   1.357       .  S
C2113      C2114   1.407       .  A
C2113      C2118   1.402       .  A
C2113      F2131   1.357       .  S
C2114      C2119   1.485       .  S
C2114      C2115   1.404       .  A
C2115      C2116   1.398       .  A
C2115      F2120   1.358       .  S
C2116      C2117   1.412       .  A
C2116      F2132   1.359       .  S
C2117      C2118   1.407       .  A
C2118      F2121   1.357       .  S
C2119      C2122   1.407       .  A
C2119      C2126   1.406       .  A
C2122      C2123   1.404       .  A
C2122      F2127   1.357       .  S
C2123      C2124   1.407       .  A
C2123      F2129   1.357       .  S
C2124      C2125   1.408       .  A
C2125      C2126   1.396       .  A
C2125      F2128   1.359       .  S
C2126      F2130   1.358       .  S
C2133      C2134   1.406       .  A
C2133      C2138   1.407       .  A
C2133      F2151   1.357       .  S
C2134      C2135   1.402       .  A
C2135      C2136   1.398       .  A
C2136      C2137   1.409       .  A
C2136      F2152   1.358       .  S
C2137      C2138   1.409       .  A
C2138      F2141   1.358       .  S
C2139      C2142   1.404       .  A
C2139      C2146   1.409       .  A
C2142      C2143   1.398       .  A
C2142      F2147   1.358       .  S
C2143      C2144   1.410       .  A
C2143      F2149   1.358       .  S
C2144      C2145   1.409       .  A
C2145      C2146   1.408       .  A
C2145      F2148   1.357       .  S
C2153      C2154   1.405       .  A
C2153      C2158   1.407       .  A
C2153      F2171   1.357       .  S
C2154      C2159   1.480       .  S
C2154      C2155   1.399       .  A
C2155      C2156   1.392       .  A
C2155      F2160   1.358       .  S
C2156      C2157   1.415       .  A
C2156      F2172   1.358       .  S
C2157      C2158   1.412       .  A
C2158      F2161   1.357       .  S
C2159      C2162   1.406       .  A
C2159      C2166   1.402       .  A
C2162      C2163   1.401       .  A
C2162      F2167   1.358       .  S
C2163      C2164   1.407       .  A
C2163      F2169   1.358       .  S
C2164      C2165   1.411       .  A
C2165      C2166   1.401       .  A
C2165      F2168   1.358       .  S
C2166      F2170   1.358       .  S
C2173      C2174   1.411       .  A
C2173      C2178   1.409       .  A
C2173      F2191   1.357       .  S
C2174      C2179   1.498       .  S
C2174      C2175   1.405       .  A
C2175      C2176   1.403       .  A
C2175      F2180   1.358       .  S
C2176      C2177   1.413       .  A
C2176      F2192   1.358       .  S
C2177      C2178   1.406       .  A
C2178      F2181   1.357       .  S
C2179      C2182   1.411       .  A
C2179      C2186   1.406       .  A
C2182      C2183   1.408       .  A
C2182      F2187   1.357       .  S
C2183      C2184   1.406       .  A
C2183      F2189   1.357       .  S
C2184      C2185   1.411       .  A
C2185      C2186   1.404       .  A
C2185      F2188   1.358       .  S
C2186      F2190   1.358       .  S
C2193      C2194   1.411       .  A
C2193      C2198   1.409       .  A
C2193      F2211   1.358       .  S
C2194      C2199   1.493       .  S
C2194      C2195   1.403       .  A
C2195      C2196   1.402       .  A
C2195      F2200   1.357       .  S
C2196      C2197   1.408       .  A
C2196      F2212   1.357       .  S
C2197      C2198   1.406       .  A
C2198      F2201   1.358       .  S
C2199      C2202   1.411       .  A
C2199      C2206   1.402       .  A
C2202      C2203   1.410       .  A
C2202      F2207   1.357       .  S
C2205      C2206   1.401       .  A
C2205      F2208   1.359       .  S
C2206      F2210   1.358       .  S
C2213      C2214   1.407       .  A
C2213      C2218   1.405       .  A
C2213      F2231   1.358       .  S
C2214      C2219   1.492       .  S
C2214      C2215   1.407       .  A
C2215      C2216   1.403       .  A
C2215      F2220   1.357       .  S
C2216      C2217   1.408       .  A
C2216      F2232   1.357       .  S
C2217      C2218   1.411       .  A
C2218      F2221   1.358       .  S
C2219      C2222   1.404       .  A
C2219      C2226   1.407       .  A
C2222      C2223   1.401       .  A
C2222      F2227   1.358       .  S
C2223      C2224   1.414       .  A
C2223      F2229   1.358       .  S
C2224      C2225   1.413       .  A
C2225      C2226   1.407       .  A
C2225      F2228   1.358       .  S
C2226      F2230   1.358       .  S
C2233      C2234   1.407       .  A
C2233      C2238   1.405       .  A
C2233      F2251   1.357       .  S
C2234      C2239   1.487       .  S
C2234      C2235   1.404       .  A
C2235      C2236   1.398       .  A
C2235      F2240   1.359       .  S
C2236      C2237   1.413       .  A
C2236      F2252   1.358       .  S
C2237      C2238   1.408       .  A
C2238      F2241   1.357       .  S
C2239      C2242   1.406       .  A
C2239      C2246   1.406       .  A
C2242      C2243   1.401   1_556  A
C2242      F2247   1.358       .  S
C2243      C2244   1.411   1_554  A
C2243      F2249   1.358       .  S
C2244      C2245   1.409       .  A
C2245      C2246   1.400       .  A
C2245      F2248   1.358       .  S
C2246      F2250   1.358       .  S
C2253      C2254   1.406       .  A
C2253      C2258   1.404       .  A
C2253      F2271   1.358       .  S
C2254      C2259   1.488       .  S
C2254      C2255   1.405       .  A
C2255      C2256   1.400       .  A
C2255      F2260   1.358       .  S
C2256      C2257   1.411       .  A
C2257      C2258   1.411       .  A
C2258      F2261   1.358       .  S
C2259      C2262   1.407       .  A
C2259      C2266   1.406       .  A
C2262      C2263   1.402       .  A
C2262      F2267   1.358       .  S
C2263      C2264   1.408       .  A
C2263      F2269   1.358       .  S
C2264      C2265   1.409       .  A
C2265      C2266   1.402       .  A
C2265      F2268   1.358       .  S
C2266      F2270   1.358       .  S
C2273      C2274   1.406       .  A
C2273      C2278   1.405       .  A
C2273      F2291   1.357       .  S
C2274      C2279   1.480       .  S
C2274      C2275   1.402       .  A
C2275      C2276   1.393       .  A
C2275      F2280   1.359       .  S
C2276      C2277   1.412       .  A
C2276      F2292   1.359       .  S
C2277      C2278   1.408       .  A
C2278      F2281   1.357       .  S
C2279      C2282   1.404       .  A
C2279      C2286   1.404       .  A
C2282      C2283   1.401       .  A
C2282      F2287   1.358       .  S
C2283      C2284   1.410       .  A
C2283      F2289   1.358       .  S
C2284      C2285   1.411       .  A
C2285      C2286   1.398       .  A
C2285      F2288   1.358       .  S
C2286      F2290   1.358       .  S
C2293      C2294   1.411       .  A
C2293      C2298   1.403       .  A
C2293      F2311   1.358       .  S
C2294      C2299   1.492       .  S
C2294      C2295   1.406       .  A
C2295      C2296   1.400       .  A
C2295      F2300   1.358       .  S
C2296      C2297   1.408       .  A
C2296      F2312   1.358       .  S
C2297      C2298   1.405       .  A
C2298      F2301   1.358       .  S
C2299      C2302   1.411       .  A
C2302      C2303   1.408       .  A
C2302      F2307   1.357       .  S
C2303      F2309   1.357   1_556  S
C2304      C2305   1.408       .  A
C2305      C2306   1.399       .  A
C2305      F2308   1.358       .  S
C2306      F2310   1.358       .  S
C2313      C2314   1.405       .  A
C2313      C2318   1.404       .  A
C2313      F2331   1.358       .  S
C2314      C2315   1.402       .  A
C2315      C2316   1.400       .  A
C2316      C2317   1.411       .  A
C2316      F2332   1.358       .  S
C2317      C2318   1.411       .  A
C2318      F2321   1.358       .  S
C2319      C2326   1.403   1_554  A
C2322      F2327   1.357       .  S
C2323      C2324   1.411       .  A
C2324      C2325   1.411       .  A
C2325      C2326   1.397       .  A
C2325      F2328   1.358       .  S
C2326      F2330   1.358       .  S
C2333      C2334   1.403       .  A
C2333      C2338   1.395       .  A
C2333      F2351   1.358       .  S
C2334      C2339   1.485       .  S
C2334      C2335   1.406       .  A
C2335      C2336   1.407       .  A
C2335      F2340   1.358       .  S
C2336      C2337   1.412       .  A
C2336      F2352   1.357       .  S
C2337      C2338   1.410       .  A
C2338      F2341   1.359       .  S
C2339      C2342   1.405       .  A
C2339      C2346   1.403       .  A
C2342      C2343   1.400       .  A
C2342      F2347   1.358       .  S
C2343      C2344   1.411       .  A
C2343      F2349   1.358       .  S
C2344      C2345   1.413       .  A
C2345      C2346   1.403       .  A
C2345      F2348   1.357       .  S
C2346      F2350   1.358       .  S
C2353      C2354   1.401       .  A
C2353      C2358   1.394       .  A
C2353      F2371   1.358       .  S
C2354      C2359   1.481       .  S
C2354      C2355   1.406       .  A
C2355      C2356   1.407       .  A
C2355      F2360   1.357       .  S
C2356      C2357   1.410       .  A
C2356      F2372   1.357       .  S
C2357      C2358   1.412       .  A
C2358      F2361   1.358       .  S
C2359      C2362   1.403       .  A
C2359      C2366   1.405       .  A
C2362      C2363   1.399       .  A
C2362      F2367   1.358       .  S
C2363      C2364   1.409       .  A
C2363      F2369   1.358       .  S
C2364      C2365   1.410       .  A
C2365      C2366   1.403       .  A
C2365      F2368   1.358       .  S
C2366      F2370   1.358       .  S
C2373      C2374   1.405       .  A
C2373      C2378   1.395       .  A
C2373      F2391   1.358       .  S
C2374      C2379   1.486       .  S
C2374      C2375   1.408       .  A
C2375      C2376   1.405       .  A
C2375      F2380   1.357       .  S
C2376      C2377   1.407       .  A
C2376      F2392   1.357       .  S
C2377      C2378   1.408       .  A
C2378      F2381   1.359       .  S
C2379      C2382   1.407       .  A
C2379      C2386   1.404       .  A
C2382      C2383   1.403       .  A
C2382      F2387   1.358       .  S
C2383      C2384   1.410       .  A
C2383      F2389   1.357       .  S
C2384      C2385   1.414       .  A
C2385      C2386   1.399       .  A
C2385      F2388   1.358       .  S
C2386      F2390   1.358       .  S
C2393      C2394   1.404       .  A
C2393      C2398   1.402       .  A
C2393      F2411   1.358       .  S
C2394      C2399   1.496       .  S
C2394      C2395   1.411       .  A
C2395      C2396   1.409       .  A
C2395      F2400   1.358       .  S
C2396      C2397   1.408       .  A
C2396      F2412   1.358       .  S
C2397      C2398   1.411       .  A
C2398      F2401   1.356       .  S
C2399      C2402   1.411       .  A
C2399      C2406   1.404       .  A
C2402      C2403   1.409       .  A
C2402      F2407   1.358       .  S
C2403      C2404   1.407       .  A
C2403      F2409   1.358       .  S
C2404      C2405   1.412       .  A
C2405      C2406   1.402       .  A
C2405      F2408   1.358       .  S
C2406      F2410   1.358       .  S
C2413      C2414   1.407       .  A
C2413      C2418   1.396       .  A
C2413      F2431   1.358       .  S
C2414      C2419   1.498   1_545  S
C2414      C2415   1.413       .  A
C2415      C2416   1.410       .  A
C2415      F2420   1.357       .  S
C2416      C2417   1.406       .  A
C2416      F2432   1.357       .  S
C2417      C2418   1.410       .  A
C2418      F2421   1.359       .  S
C2419      C2422   1.407       .  A
C2419      C2426   1.414       .  A
C2422      C2423   1.401       .  A
C2422      F2427   1.357       .  S
C2423      C2424   1.408       .  A
C2423      F2429   1.358       .  S
C2424      C2425   1.403       .  A
C2425      C2426   1.405       .  A
C2425      F2428   1.358       .  S
C2426      F2430   1.358   1_565  S
C2433      C2434   1.405       .  A
C2433      C2438   1.394       .  A
C2433      F2451   1.358       .  S
C2434      C2439   1.497       .  S
C2434      C2435   1.414       .  A
C2435      C2436   1.411       .  A
C2435      F2440   1.357       .  S
C2436      C2437   1.406       .  A
C2436      F2452   1.357       .  S
C2437      C2438   1.408       .  A
C2438      F2441   1.359       .  S
C2439      C2442   1.409       .  A
C2439      C2446   1.406       .  A
C2442      C2443   1.404       .  A
C2442      F2447   1.358       .  S
C2443      C2444   1.411       .  A
C2443      F2449   1.358       .  S
C2444      C2445   1.415       .  A
C2445      C2446   1.404       .  A
C2445      F2448   1.357       .  S
C2446      F2450   1.358       .  S
C2453      C2454   1.408       .  A
C2453      C2458   1.402       .  A
C2454      C2455   1.406       .  A
C2455      C2456   1.402       .  A
C2455      F2460   1.358       .  S
C2456      C2457   1.412       .  A
C2456      F2472   1.358       .  S
C2457      C2458   1.410       .  A
C2458      F2461   1.358       .  S
C2459      C2462   1.405       .  A
C2459      C2466   1.401   1_554  A
C2462      C2463   1.407   1_554  A
C2462      F2467   1.357       .  S
C2463      C2464   1.412       .  A
C2463      F2469   1.358   1_556  S
C2464      C2465   1.411       .  A
C2465      C2466   1.391       .  A
C2465      F2468   1.358       .  S
C2473      C2474   1.410       .  A
C2473      C2478   1.413       .  A
C2474      C2475   1.400       .  A
C2475      C2476   1.392       .  A
C2475      F2480   1.359       .  S
C2476      C2477   1.415       .  A
C2476      F2492   1.359       .  S
C2477      C2478   1.411       .  A
C2478      F2481   1.357       .  S
C2479      C2482   1.408       .  A
C2479      C2486   1.410       .  A
C2482      C2483   1.406       .  A
C2483      C2484   1.413       .  A
C2483      F2489   1.358       .  S
C2484      C2485   1.410       .  A
C2485      C2486   1.404       .  A
C2485      F2488   1.358       .  S
C2486      F2490   1.358       .  S
C2493      C2494   1.402       .  A
C2493      C2498   1.395       .  A
C2493      F2511   1.358       .  S
C2494      C2499   1.482       .  S
C2494      C2495   1.406       .  A
C2495      C2496   1.405       .  A
C2495      F2500   1.358       .  S
C2496      C2497   1.412       .  A
C2496      F2512   1.358       .  S
C2497      C2498   1.411       .  A
C2498      F2501   1.358       .  S
C2499      C2502   1.403       .  A
C2499      C2506   1.405       .  A
C2502      C2503   1.393       .  A
C2502      F2507   1.359       .  S
C2503      C2504   1.410       .  A
C2503      F2509   1.358       .  S
C2504      C2505   1.412       .  A
C2505      C2506   1.406       .  A
C2505      F2508   1.358       .  S
C2506      F2510   1.357       .  S
C2513      C2514   1.413       .  A
C2513      C2518   1.407       .  A
C2513      F2531   1.357       .  S
C2514      C2519   1.497       .  S
C2514      C2515   1.405       .  A
C2515      C2516   1.402       .  A
C2515      F2520   1.358       .  S
C2519      C2522   1.414       .  A
C2519      C2526   1.402       .  A
C2522      C2523   1.412       .  A
C2522      F2527   1.358       .  S
C2523      C2524   1.406       .  A
C2523      F2529   1.357       .  S
C2524      C2525   1.414       .  A
C2525      C2526   1.398       .  A
C2525      F2528   1.358       .  S
C2526      F2530   1.358       .  S
C2533      C2534   1.406       .  A
C2533      C2538   1.408       .  A
C2533      F2551   1.357       .  S
C2534      C2539   1.484       .  S
C2534      C2535   1.403       .  A
C2535      C2536   1.397       .  A
C2535      F2540   1.358       .  S
C2536      C2537   1.410       .  A
C2536      F2552   1.358       .  S
C2537      C2538   1.411       .  A
C2538      F2541   1.357       .  S
C2539      C2542   1.404       .  A
C2539      C2546   1.406       .  A
C2542      C2543   1.401       .  A
C2542      F2547   1.358       .  S
C2543      C2544   1.409       .  A
C2543      F2549   1.358       .  S
C2544      C2545   1.407       .  A
C2545      C2546   1.404       .  A
C2545      F2548   1.358       .  S
C2546      F2550   1.358       .  S
C2553      C2554   1.403       .  A
C2553      C2558   1.394       .  A
C2553      F2571   1.358       .  S
C2554      C2559   1.481       .  S
C2554      C2555   1.408       .  A
C2555      C2556   1.402       .  A
C2555      F2560   1.358       .  S
C2556      C2557   1.405       .  A
C2556      F2572   1.357       .  S
C2557      C2558   1.409       .  A
C2558      F2561   1.359       .  S
C2559      C2562   1.404       .  A
C2559      C2566   1.404       .  A
C2562      C2563   1.399       .  A
C2562      F2567   1.358       .  S
C2563      C2564   1.413       .  A
C2563      F2569   1.358       .  S
C2564      C2565   1.411       .  A
C2565      C2566   1.398       .  A
C2565      F2568   1.358       .  S
C2566      F2570   1.358       .  S
C2573      C2574   1.415       .  A
C2573      C2578   1.409       .  A
C2573      F2591   1.357       .  S
C2574      C2579   1.506       .  S
C2574      C2575   1.407       .  A
C2575      C2576   1.405       .  A
C2575      F2580   1.358       .  S
C2576      C2577   1.414       .  A
C2576      F2592   1.359       .  S
C2577      C2578   1.404       .  A
C2578      F2581   1.357       .  S
C2579      C2582   1.415       .  A
C2579      C2586   1.408       .  A
C2582      C2583   1.412       .  A
C2582      F2587   1.358       .  S
C2583      C2584   1.407       .  A
C2583      F2589   1.358       .  S
C2584      C2585   1.409       .  A
C2585      C2586   1.403       .  A
C2585      F2588   1.358       .  S
C2586      F2590   1.357       .  S
C2593      C2594   1.400       .  A
C2593      C2598   1.394       .  A
C2593      F2611   1.359       .  S
C2594      C2599   1.478       .  S
C2594      C2595   1.404       .  A
C2595      C2596   1.405       .  A
C2595      F2600   1.357       .  S
C2596      C2597   1.411       .  A
C2596      F2612   1.357       .  S
C2597      C2598   1.414       .  A
C2598      F2601   1.359       .  S
C2599      C2602   1.404       .  A
C2599      C2606   1.402       .  A
C2602      C2603   1.402       .  A
C2602      F2607   1.358       .  S
C2603      C2604   1.411       .  A
C2603      F2609   1.358       .  S
C2604      C2605   1.411       .  A
C2605      C2606   1.397       .  A
C2605      F2608   1.358       .  S
C2606      F2610   1.358       .  S
C2613      C2614   1.404       .  A
C2613      C2618   1.400       .  A
C2613      F2631   1.358       .  S
C2614      C2619   1.488       .  S
C2614      C2615   1.405       .  A
C2615      C2616   1.405       .  A
C2615      F2620   1.358       .  S
C2616      C2617   1.413       .  A
C2616      F2632   1.358       .  S
C2617      C2618   1.412       .  A
C2618      F2621   1.358       .  S
C2619      C2622   1.402       .  A
C2619      C2626   1.408       .  A
C2622      C2623   1.396       .  A
C2622      F2627   1.358       .  S
C2623      C2624   1.413       .  A
C2624      C2625   1.410       .  A
C2625      C2626   1.409       .  A
C2625      F2628   1.356       .  S
C2626      F2630   1.357       .  S
C2633      C2634   1.400       .  A
C2633      C2638   1.397       .  A
C2633      F2651   1.358       .  S
C2634      C2639   1.486   1_655  S
C2634      C2635   1.411       .  A
C2635      C2636   1.406       .  A
C2635      F2640   1.358   1_655  S
C2636      C2637   1.405       .  A
C2636      F2652   1.357       .  S
C2637      C2638   1.413       .  A
C2638      F2641   1.358       .  S
C2639      C2642   1.400       .  A
C2639      C2646   1.411       .  A
C2642      C2643   1.396       .  A
C2642      F2647   1.358       .  S
C2643      C2644   1.412       .  A
C2643      F2649   1.358       .  S
C2644      C2645   1.406       .  A
C2645      C2646   1.407       .  A
C2645      F2648   1.358       .  S
C2646      F2650   1.358   1_455  S
C2653      C2654   1.404       .  A
C2653      C2658   1.403       .  A
C2653      F2671   1.358       .  S
C2654      C2659   1.480       .  S
C2654      C2655   1.402       .  A
C2655      C2656   1.396       .  A
C2655      F2660   1.358       .  S
C2656      C2657   1.410       .  A
C2656      F2672   1.358       .  S
C2657      C2658   1.413       .  A
C2658      F2661   1.357       .  S
C2659      C2662   1.404       .  A
C2659      C2666   1.402       .  A
C2662      C2663   1.404       .  A
C2662      F2667   1.357       .  S
C2663      C2664   1.412       .  A
C2663      F2669   1.358       .  S
C2664      C2665   1.413       .  A
C2665      C2666   1.394       .  A
C2666      F2670   1.358       .  S
C2673      C2674   1.408       .  A
C2673      C2678   1.411       .  A
C2673      F2691   1.357       .  S
C2674      C2679   1.490       .  S
C2674      C2675   1.401       .  A
C2675      C2676   1.398       .  A
C2675      F2680   1.358       .  S
C2676      C2677   1.416       .  A
C2676      F2692   1.358       .  S
C2677      C2678   1.413       .  A
C2678      F2681   1.357       .  S
C2679      C2682   1.406       .  A
C2679      C2686   1.405       .  A
C2682      C2683   1.404       .  A
C2682      F2687   1.358       .  S
C2683      C2684   1.411       .  A
C2683      F2689   1.358       .  S
C2684      C2685   1.411       .  A
C2685      C2686   1.405       .  A
C2685      F2688   1.358       .  S
C2686      F2690   1.357       .  S
C2693      C2694   1.402       .  A
C2693      C2698   1.398       .  A
C2693      F2711   1.358       .  S
C2694      C2699   1.488       .  S
C2694      C2695   1.406       .  A
C2695      C2696   1.408       .  A
C2695      F2700   1.357       .  S
C2696      C2697   1.413       .  A
C2696      F2712   1.357       .  S
C2697      C2698   1.415       .  A
C2698      F2701   1.358       .  S
C2699      C2702   1.404       .  A
C2699      C2706   1.406       .  A
C2702      C2703   1.400       .  A
C2702      F2707   1.358       .  S
C2703      C2704   1.410       .  A
C2703      F2709   1.358       .  S
C2704      C2705   1.411       .  A
C2705      C2706   1.406       .  A
C2705      F2708   1.358       .  S
C2706      F2710   1.358       .  S
C2713      C2714   1.403       .  A
C2713      C2718   1.402       .  A
C2713      F2731   1.358       .  S
C2714      C2719   1.488       .  S
C2714      C2715   1.406       .  A
C2715      C2716   1.402       .  A
C2715      F2720   1.358       .  S
C2716      C2717   1.413       .  A
C2716      F2732   1.358       .  S
C2717      C2718   1.413       .  A
C2719      C2722   1.407       .  A
C2719      C2726   1.401       .  A
C2722      C2723   1.407       .  A
C2722      F2727   1.357       .  S
C2723      C2724   1.411       .  A
C2723      F2729   1.357       .  S
C2724      C2725   1.417       .  A
C2725      C2726   1.396       .  A
C2725      F2728   1.358       .  S
C2726      F2730   1.359       .  S
C2733      C2734   1.406       .  A
C2733      C2738   1.403       .  A
C2733      F2751   1.358       .  S
C2734      C2739   1.491       .  S
C2734      C2735   1.410   1_556  A
C2735      F2740   1.358       .  S
C2736      C2737   1.402       .  A
C2736      F2752   1.358       .  S
C2739      C2742   1.411       .  A
C2739      C2746   1.404       .  A
C2742      C2743   1.407       .  A
C2742      F2747   1.358       .  S
C2743      C2744   1.407       .  A
C2743      F2749   1.358       .  S
C2744      C2745   1.410       .  A
C2745      C2746   1.399       .  A
C2745      F2748   1.358       .  S
C2746      F2750   1.358       .  S
C2753      C2754   1.400       .  A
C2753      C2758   1.393       .  A
C2753      F2771   1.359       .  S
C2754      C2759   1.480       .  S
C2754      C2755   1.406       .  A
C2755      C2756   1.407       .  A
C2755      F2760   1.357       .  S
C2756      C2757   1.410       .  A
C2756      F2772   1.357       .  S
C2757      C2758   1.413       .  A
C2758      F2761   1.359       .  S
C2759      C2762   1.403       .  A
C2759      C2766   1.403       .  A
C2762      C2763   1.400       .  A
C2762      F2767   1.358       .  S
C2763      C2764   1.412       .  A
C2763      F2769   1.358       .  S
C2764      C2765   1.414       .  A
C2765      C2766   1.401       .  A
C2765      F2768   1.358       .  S
C2766      F2770   1.358       .  S
C2773      C2774   1.410       .  A
C2773      C2778   1.408       .  A
C2774      C2775   1.402       .  A
C2775      C2776   1.400       .  A
C2775      F2780   1.358       .  S
C2776      C2777   1.417       .  A
C2776      F2792   1.358       .  S
C2777      C2778   1.411       .  A
C2778      F2781   1.357       .  S
C2779      C2782   1.400       .  A
C2782      C2783   1.395       .  A
C2782      F2787   1.359       .  S
C2783      C2784   1.416       .  A
C2783      F2789   1.358       .  S
C2784      C2785   1.414       .  A
C2786      F2790   1.357       .  S
C2793      F2811   1.357       .  S
C2794      C2795   1.399   1_554  A
C2795      C2796   1.396       .  A
C2795      F2800   1.359       .  S
C2796      C2797   1.418       .  A
C2796      F2812   1.358       .  S
C2797      C2798   1.411       .  A
C2799      C2802   1.404       .  A
C2799      C2806   1.403       .  A
C2802      C2803   1.400       .  A
C2802      F2807   1.358       .  S
C2803      C2804   1.408       .  A
C2803      F2809   1.357       .  S
C2804      C2805   1.412       .  A
C2805      C2806   1.402       .  A
C2805      F2808   1.358       .  S
C2813      C2814   1.403       .  A
C2813      C2818   1.400       .  A
C2813      F2831   1.358       .  S
C2814      C2819   1.478       .  S
C2814      C2815   1.403       .  A
C2815      C2816   1.397       .  A
C2815      F2820   1.358       .  S
C2816      C2817   1.411       .  A
C2816      F2832   1.358       .  S
C2817      C2818   1.410       .  A
C2818      F2821   1.358       .  S
C2819      C2822   1.400       .  A
C2819      C2826   1.405       .  A
C2822      C2823   1.392       .  A
C2822      F2827   1.359       .  S
C2823      C2824   1.413       .  A
C2823      F2829   1.358       .  S
C2824      C2825   1.411       .  A
C2825      C2826   1.406       .  A
C2825      F2828   1.357       .  S
C2826      F2830   1.357       .  S
C2833      C2834   1.404       .  A
C2833      C2838   1.400       .  A
C2833      F2851   1.358       .  S
C2834      C2839   1.491   1_455  S
C2834      C2835   1.411       .  A
C2835      C2836   1.405       .  A
C2835      F2840   1.358       .  S
C2836      C2837   1.404       .  A
C2836      F2852   1.358       .  S
C2837      C2838   1.407       .  A
C2838      F2841   1.357       .  S
C2839      C2842   1.409       .  A
C2839      C2846   1.405       .  A
C2842      C2843   1.409       .  A
C2842      F2847   1.357   1_655  S
C2843      C2844   1.409       .  A
C2843      F2849   1.357       .  S
C2844      C2845   1.409       .  A
C2845      C2846   1.397       .  A
C2845      F2848   1.358       .  S
C2846      F2850   1.358       .  S
C2853      C2854   1.410       .  A
C2853      C2858   1.404       .  A
C2853      F2871   1.358       .  S
C2854      C2859   1.492       .  S
C2854      C2855   1.406       .  A
C2855      C2856   1.405       .  A
C2855      F2860   1.357       .  S
C2856      C2857   1.408       .  A
C2856      F2872   1.358       .  S
C2857      C2858   1.404       .  A
C2858      F2861   1.358       .  S
C2859      C2862   1.403       .  A
C2859      C2866   1.409       .  A
C2862      C2863   1.397       .  A
C2862      F2867   1.358       .  S
C2863      C2864   1.413       .  A
C2863      F2869   1.359       .  S
C2864      C2865   1.411       .  A
C2865      C2866   1.411       .  A
C2865      F2868   1.357       .  S
C2866      F2870   1.357       .  S
C2873      C2874   1.405       .  A
C2873      C2878   1.401       .  A
C2873      F2891   1.358       .  S
C2874      C2879   1.487       .  S
C2874      C2875   1.409       .  A
C2875      C2876   1.399       .  A
C2875      F2880   1.358       .  S
C2876      C2877   1.406       .  A
C2876      F2892   1.358       .  S
C2877      C2878   1.410       .  A
C2878      F2881   1.358       .  S
C2879      C2882   1.409       .  A
C2879      C2886   1.405       .  A
C2882      C2883   1.404       .  A
C2882      F2887   1.358       .  S
C2883      C2884   1.409       .  A
C2883      F2889   1.358       .  S
C2884      C2885   1.405       .  A
C2885      C2886   1.396       .  A
C2885      F2888   1.358       .  S
C2886      F2890   1.358       .  S
C2893      C2894   1.410       .  A
C2893      C2898   1.410       .  A
C2893      F2911   1.357       .  S
C2894      C2899   1.491       .  S
C2894      C2895   1.401       .  A
C2895      C2896   1.398       .  A
C2895      F2900   1.358       .  S
C2896      C2897   1.415       .  A
C2896      F2912   1.358       .  S
C2897      C2898   1.409       .  A
C2898      F2901   1.357       .  S
C2899      C2902   1.403       .  A
C2899      C2906   1.407       .  A
C2902      C2903   1.403       .  A
C2902      F2907   1.358       .  S
C2903      C2904   1.415       .  A
C2903      F2909   1.358       .  S
C2904      C2905   1.412       .  A
C2905      C2906   1.406       .  A
C2905      F2908   1.357       .  S
C2906      F2910   1.358       .  S
C2913      C2914   1.408       .  A
C2913      C2918   1.403       .  A
C2913      F2931   1.358       .  S
C2914      C2919   1.491       .  S
C2914      C2915   1.409       .  A
C2915      C2916   1.397       .  A
C2915      F2920   1.358       .  S
C2916      C2917   1.406       .  A
C2916      F2932   1.358       .  S
C2917      C2918   1.411       .  A
C2918      F2921   1.358       .  S
C2919      C2922   1.411       .  A
C2919      C2926   1.408       .  A
C2922      C2923   1.403       .  A
C2922      F2927   1.358       .  S
C2923      C2924   1.407       .  A
C2923      F2929   1.358       .  S
C2924      C2925   1.405       .  A
C2925      C2926   1.396       .  A
C2926      F2930   1.358       .  S
C2933      C2934   1.406       .  A
C2933      C2938   1.409       .  A
C2933      F2951   1.358       .  S
C2934      C2939   1.487       .  S
C2934      C2935   1.400       .  A
C2935      C2936   1.398       .  A
C2935      F2940   1.358       .  S
C2936      C2937   1.415       .  A
C2936      F2952   1.357       .  S
C2937      C2938   1.414       .  A
C2938      F2941   1.358       .  S
C2939      C2942   1.401       .  A
C2939      C2946   1.406       .  A
C2942      C2943   1.399       .  A
C2942      F2947   1.358       .  S
C2943      C2944   1.416       .  A
C2943      F2949   1.358       .  S
C2944      C2945   1.411       .  A
C2945      C2946   1.409       .  A
C2945      F2948   1.357       .  S
C2946      F2950   1.357       .  S
