geometry optimzed in LAMMPS
_audit_creation_date              2020-11-30 
_audit_creation_method            'lammps2cif' 
_symmetry_space_group_name_H-M    'P1' 
_symmetry_Int_Tables_number       1 
_symmetry_cell_setting            triclinic 
loop_ 
_symmetry_equiv_pos_as_xyz 
  x,y,z 
_cell_length_a                    26.95757284 
_cell_length_b                    25.992516064742038 
_cell_length_c                    40.06468603952129 
_cell_angle_alpha                 90.18191818684814 
_cell_angle_beta                  90.41156202678899 
_cell_angle_gamma                 120.08196195535642 
loop_ 
_atom_site_label 
_atom_site_type_symbol 
_atom_site_fract_x 
_atom_site_fract_y 
_atom_site_fract_z 
_atom_site_charge 
Zn1        Zn  0.29795008  0.08623347  0.90907105     1.49700
Zn2        Zn  0.41468823  0.21037107  0.90939400     1.49400
Zn3        Zn  0.29650971  0.20833141  0.91138152     1.49100
Zn4        Zn  0.33823307  0.16728336  0.97630295     1.49500
O5          O  0.33701863  0.16797229  0.92756704    -1.83500
O6          O  0.34820908  0.07290315  0.87863647    -0.74200
O7          O  0.42485943  0.27647256  0.88028468    -0.74000
O8          O  0.23877715  0.15901503  0.87766614    -0.73500
O9          O  0.42541232  0.16177696  0.87490848    -0.74200
O10         O  0.23856409  0.07403044  0.87510239    -0.73800
O11         O  0.34342409  0.27723281  0.88209392    -0.74400
O12         O  0.29376149  0.21107123  0.99355002    -0.73800
O13         O  0.47742240  0.23862511  0.94460691    -0.74500
O14         O  0.26215466  0.23371375  0.94744064    -0.73900
O15         O  0.42636258  0.21117482  0.99143850    -0.74400
O16         O  0.29418605  0.07668421  0.99095743    -0.74300
O17         O  0.26508566  0.02226894  0.94416515    -0.74100
C18         C  0.39486297  0.10865075  0.86455323     0.77700
C19         C  0.39239716  0.29538700  0.86969698     0.78200
C20         C  0.22337986  0.10941819  0.86360569     0.77200
C21         C  0.26578770  0.23324669  0.97907294     0.77500
C22         C  0.47507772  0.23579434  0.97634038     0.78700
C23         C  0.26786210  0.02577822  0.97589264     0.77700
Zn24       Zn  0.33499674  0.17467730  0.49767610     1.49700
Zn25       Zn  0.41257367  0.20542678  0.56420233     1.49400
Zn26       Zn  0.30608658  0.22420713  0.56460220     1.49100
Zn27       Zn  0.28875098  0.09472790  0.56375972     1.49500
O28         O  0.33564320  0.17500225  0.54612947    -1.83500
O29         O  0.42265115  0.21855894  0.48215301    -0.74200
O30         O  0.42443463  0.25939977  0.60304493    -0.74000
O31         O  0.26900133  0.25042790  0.52919508    -0.73500
O32         O  0.47502079  0.24252738  0.52907449    -0.74200
O33         O  0.28999649  0.21859653  0.48243389    -0.73800
O34         O  0.36429265  0.29158436  0.59271623    -0.74400
O35         O  0.22394382  0.08663312  0.58949066    -0.73800
O36         O  0.41973779  0.14313602  0.58839491    -0.74500
O37         O  0.25038532  0.18000022  0.60066810    -0.73900
O38         O  0.32971100  0.07736423  0.59963488    -0.74400
O39         O  0.25923364  0.03080441  0.52887776    -0.74300
O40         O  0.28904246  0.08419908  0.48229185    -0.74100
C41         C  0.47186635  0.24237202  0.49726618     0.77700
C42         C  0.40168523  0.28980971  0.61158707     0.78200
C43         C  0.26631720  0.24468355  0.49748093     0.77200
C44         C  0.22181287  0.12536860  0.60779215     0.77500
C45         C  0.38270773  0.10083348  0.60602993     0.78700
C46         C  0.26208805  0.03370592  0.49725882     0.77700
C47         C  0.01444184  0.01821769  0.76839699     0.46000
H48         H  0.01691495  0.02334470  0.79602760    -0.03000
C49         C  0.00897660  0.00493136  0.70446351     0.46100
H50         H  0.00651083  0.49851702  0.67695659    -0.03000
C51         C  0.48349746  0.04774851  0.75111723    -0.16700
C52         C  0.07362745  0.04581887  0.75220421    -0.16400
C53         C  0.48154066  0.45217266  0.75715633    -0.16800
C54         C  0.48283889  0.04276213  0.71670198    -0.16800
C55         C  0.07101701  0.03566459  0.71857698    -0.16300
C56         C  0.47560863  0.44534810  0.72318547    -0.16700
Zn57       Zn  0.20109983  0.29352019  0.40991152     1.49700
Zn58       Zn  0.16350404  0.33593553  0.47676971     1.49400
Zn59       Zn  0.20400376  0.41731756  0.41095079     1.49100
Zn60       Zn  0.08392338  0.29501332  0.40984588     1.49500
O61         O  0.16289701  0.33500069  0.42784581    -1.83500
O62         O  0.23511189  0.26574532  0.44608881    -0.74200
O63         O  0.20850094  0.42630907  0.49255020    -0.74000
O64         O  0.26924258  0.43455046  0.38173691    -0.73500
O65         O  0.20935412  0.29305779  0.49274388    -0.74200
O66         O  0.26224655  0.34625490  0.37864582    -0.73800
O67         O  0.23341925  0.48026763  0.44615404    -0.74400
O68         O  0.07479711  0.34542852  0.37551359    -0.73800
O69         O  0.07590952  0.29225685  0.49263044    -0.74500
O70         O  0.15740670  0.43011583  0.37778412    -0.73900
O71         O  0.02317486  0.26848676  0.44587075    -0.74400
O72         O  0.06844963  0.22657827  0.38001202    -0.74300
O73         O  0.15058865  0.22703476  0.37837712    -0.74100
C74         C  0.23515376  0.26905432  0.47784712     0.77700
C75         C  0.23310102  0.47702177  0.47774478     0.78200
C76         C  0.28367060  0.39960823  0.36889335     0.77200
C77         C  0.10908999  0.39677786  0.36421324     0.77500
C78         C  0.02662413  0.26943875  0.47766733     0.78700
C79         C  0.09968689  0.20770834  0.36773108     0.77700
Zn80       Zn  0.20874882  0.41209053  0.06286445     1.49700
Zn81       Zn  0.16678912  0.32842465  0.99764054     1.49400
Zn82       Zn  0.20439231  0.28716724  0.06577903     1.49100
Zn83       Zn  0.08850019  0.28988066  0.06349386     1.49500
O84         O  0.16706845  0.32909075  0.04646421    -1.83500
O85         O  0.24288435  0.47378231  0.02717956    -0.74200
O86         O  0.21069520  0.28307043  0.98353168    -0.74000
O87         O  0.26298697  0.33709045  0.10045643    -0.73500
O88         O  0.21214122  0.41829686  0.98096049    -0.74200
O89         O  0.26746094  0.42407390  0.09644912    -0.73800
O90         O  0.23868287  0.25839690  0.03053759    -0.74400
O91         O  0.07115423  0.22375669  0.09517264    -0.73800
O92         O  0.07913361  0.28483897  0.98111076    -0.74500
O93         O  0.15128307  0.22030097  0.09513247    -0.73900
O94         O  0.02746195  0.26118943  0.02759481    -0.74400
O95         O  0.08081434  0.34477803  0.09402801    -0.74300
O96         O  0.16115864  0.43169336  0.09171235    -0.74100
C97         C  0.23954438  0.46956100  0.99554899     0.77700
C98         C  0.23680741  0.25954441  0.99875910     0.78200
C99         C  0.28139972  0.38986985  0.11086223     0.77200
C100        C  0.10162785  0.20305262  0.10651628     0.77500
C101        C  0.03022202  0.26195353  0.99589964     0.78700
C102        C  0.11245589  0.39791630  0.10414174     0.77700
C103        C  0.99806514  0.98695101  0.26888941     0.46000
H104        H  0.00324034  0.98797874  0.29647199    -0.03000
C105        C  0.98526809  0.98578083  0.20542790     0.46100
H106        H  0.98083488  0.98615983  0.17785877    -0.03000
C107        C  0.02675964  0.45683312  0.25030266    -0.16700
C108        C  0.43494245  0.45479595  0.25790978    -0.16400
C109        C  0.02492422  0.04968208  0.25414378    -0.16800
C110        C  0.01784972  0.45441835  0.21637023    -0.16800
C111        C  0.42772044  0.45584086  0.22395689    -0.16300
C112        C  0.01908052  0.04895344  0.22006686    -0.16700
C113        C  0.08477450  0.09295818  0.17402440    -0.05200
C114        C  0.04780650  0.09864534  0.19628241     0.00700
C115        C  0.02876262  0.13916272  0.18918598    -0.07800
C116        C  0.04594666  0.17082587  0.15896230    -0.05200
C117        C  0.08142229  0.16335127  0.13599496     0.00700
C118        C  0.10119306  0.12346617  0.14372599    -0.07800
C119        C  0.13735610  0.11064199  0.11983077     0.62600
H120        H  0.09894410  0.06185696  0.18008653     0.13300
H121        H  0.03310965  0.20331474  0.15357867     0.13300
C122        C  0.49438590  0.15264149  0.21405940     0.62900
F123        F  0.14071982  0.06137270  0.12936700    -0.22300
F124        F  0.19260077  0.15855329  0.11905844    -0.19600
F125        F  0.11334067  0.09942230  0.08812213    -0.19300
F126        F  0.44935917  0.10131621  0.22687862    -0.19400
F127        F  0.47183754  0.18489116  0.19957244    -0.19700
F128        F  0.53010511  0.18602367  0.24002107    -0.22400
C129        C  0.29980842  0.36730146  0.16791689    -0.05200
C130        C  0.31445704  0.40966318  0.14248905     0.00700
C131        C  0.35553945  0.46974708  0.14921571    -0.07800
C132        C  0.38305968  0.48397502  0.18035998    -0.05200
C133        C  0.37484912  0.44054308  0.20399714     0.00700
C134        C  0.32846554  0.38174942  0.19907705    -0.07800
C135        C  0.30636303  0.33507798  0.22634031     0.62600
H136        H  0.26490378  0.32255438  0.16323409     0.13300
H137        H  0.41705803  0.02881377  0.18464952     0.13300
C138        C  0.37401666  0.51828243  0.12309318     0.62900
F139        F  0.28231672  0.35198272  0.25128670    -0.22300
F140        F  0.34953502  0.32779046  0.23972660    -0.19600
F141        F  0.26436266  0.28011712  0.21444059    -0.19300
F142        F  0.33051927  0.03087862  0.11746606    -0.19400
F143        F  0.38703517  0.49996370  0.09361623    -0.19700
F144        F  0.42215367  0.07060854  0.13306319    -0.22400
C145        C  0.10118569  0.45687464  0.18890816    -0.05200
C146        C  0.04166727  0.43294556  0.19015618     0.00700
C147        C  0.00712122  0.39895739  0.16259284    -0.07800
C148        C  0.03347328  0.39593287  0.13362107    -0.05200
C149        C  0.09229696  0.41796870  0.13253516     0.00700
C150        C  0.12704975  0.44728349  0.16100792    -0.07800
C151        C  0.19029509  0.46653604  0.16251996     0.62600
H152        H  0.12724858  0.98340582  0.20979748     0.13300
H153        H  0.00702680  0.37208891  0.11212717     0.13300
C154        C  0.44234789  0.36325126  0.16241629     0.62900
F155        F  0.21407327  0.98882131  0.19369900    -0.22300
F156        F  0.21985708  0.51030146  0.13921191    -0.19600
F157        F  0.19729453  0.41825457  0.15606694    -0.19300
F158        F  0.42075566  0.39215452  0.14358244    -0.19400
F159        F  0.42088625  0.35428084  0.19408047    -0.19700
F160        F  0.42362340  0.30760577  0.14848030    -0.22400
C161        C  0.35963446  0.39480162  0.33947046    -0.05200
C162        C  0.32392098  0.41908172  0.34088351     0.00700
C163        C  0.32117797  0.45209663  0.31335490    -0.07800
C164        C  0.35643770  0.46087142  0.28570781    -0.05200
C165        C  0.39066897  0.43446788  0.28401350     0.00700
C166        C  0.39047817  0.39895659  0.31097819    -0.07800
C167        C  0.42062120  0.36312119  0.31107664     0.62600
H168        H  0.36102684  0.36916907  0.36042606     0.13300
H169        H  0.35815004  0.48904181  0.26536996     0.13300
C170        C  0.28060222  0.47666568  0.31252726     0.62900
F171        F  0.38477103  0.30696311  0.32369209    -0.21100
F172        F  0.96934672  0.89148381  0.33100755    -0.19600
F173        F  0.43515854  0.35538971  0.27954171    -0.19300
F174        F  0.29545237  0.51898882  0.33741324    -0.19400
F175        F  0.22495322  0.43106055  0.31712068    -0.19700
F176        F  0.28237861  0.50325648  0.28231136    -0.22400
C177        C  0.11996855  0.17477088  0.31392148    -0.05200
C178        C  0.07902639  0.16774225  0.33795571     0.00700
C179        C  0.02016661  0.12791203  0.33110352    -0.07800
C180        C  0.00501620  0.09602752  0.30089918    -0.05200
C181        C  0.04589516  0.10068033  0.27775162     0.00700
C182        C  0.10452968  0.14208236  0.28372223    -0.07800
C183        C  0.15043608  0.15514303  0.25796950     0.62600
H184        H  0.16449930  0.20758346  0.31856496     0.13300
H185        H  0.46042367  0.06461671  0.29562216     0.13300
C186        C  0.97323334  0.11665206  0.35579890     0.62900
F187        F  0.14528881  0.18769284  0.23239207    -0.22300
F188        F  0.14544208  0.10351062  0.24491248    -0.19600
F189        F  0.20498876  0.18819260  0.27160115    -0.19300
F190        F  0.96555141  0.16536039  0.35722425    -0.19400
F191        F  0.98776471  0.10583539  0.38713185    -0.19700
F192        F  0.42123555  0.06777335  0.34674963    -0.22400
C193        C  0.06883730  0.37135512  0.30724253    -0.05200
C194        C  0.09557502  0.41516706  0.33225809     0.00700
C195        C  0.11387541  0.47509183  0.32474008    -0.07800
C196        C  0.10035053  0.48781485  0.29322163    -0.05200
C197        C  0.06571546  0.44297733  0.27006824     0.00700
C198        C  0.05452230  0.38431100  0.27572928    -0.07800
C199        C  0.03135171  0.33629691  0.24880967     0.62600
H200        H  0.05993135  0.32669114  0.31251768     0.13300
H201        H  0.11047075  0.53266659  0.28820931     0.13300
C202        C  0.14354723  0.52501148  0.35039567     0.62900
F203        F  0.01782674  0.28145699  0.26161454    -0.22300
F204        F  0.07260292  0.85063276  0.22484421    -0.19600
F205        F  0.98245574  0.33008451  0.23399910    -0.19300
F206        F  0.19892856  0.53684399  0.35610401    -0.19400
F207        F  0.11348297  0.50892431  0.37998995    -0.19700
F208        F  0.64666648  0.57718547  0.33982321    -0.22400
C209        C  0.40219646  0.05630830  0.69419242    -0.05200
C210        C  0.45826521  0.06638387  0.69148556     0.00700
C211        C  0.48897473  0.09313205  0.66203764    -0.07800
C212        C  0.45957608  0.09402735  0.63374915    -0.05200
C213        C  0.40326918  0.08233685  0.63544940     0.00700
C214        C  0.37447433  0.06589351  0.66674560    -0.07800
C215        C  0.31558814  0.05895527  0.67151653     0.62600
H216        H  0.37954885  0.03900629  0.71730767     0.13300
H217        H  0.48318908  0.11018149  0.61069054     0.13300
C218        C  0.05341040  0.12834929  0.66022087     0.62900
F219        F  0.29856295  0.04810363  0.70450074    -0.22300
F220        F  0.27545770  0.01179595  0.65241463    -0.19600
F221        F  0.31639270  0.11053092  0.66214454    -0.19300
F222        F  0.07257650  0.09682635  0.64192385    -0.19400
F223        F  0.07793591  0.14172304  0.69154517    -0.19700
F224        F  0.07061844  0.18206763  0.64455331    -0.22400
C225        C  0.15105712  0.04372239  0.64159999    -0.05200
C226        C  0.18821470  0.10508169  0.63890762     0.00700
C227        C  0.19785597  0.14183105  0.66758073    -0.07800
C228        C  0.16343219  0.11621885  0.69585732    -0.05200
C229        C  0.12141981  0.05581937  0.69632187     0.00700
C230        C  0.12129064  0.01852781  0.67069855    -0.07800
C231        C  0.09339996  0.45199780  0.67358020     0.62600
H232        H  0.14648905  0.01409007  0.62119792     0.13300
H233        H  0.16582977  0.14425488  0.71653468     0.13300
C234        C  0.24351238  0.20715568  0.66886443     0.62900
F235        F  0.13177907  0.93411705  0.66456772    -0.22300
F236        F  0.54666292  0.92600119  0.65204989    -0.19600
F237        F  0.07715827  0.43395923  0.70580075    -0.19300
F238        F  0.23039877  0.23865323  0.64616912    -0.19400
F239        F  0.29627333  0.21335473  0.66160174    -0.19700
F240        F  0.24784391  0.23188718  0.70017223    -0.22400
C241        C  0.38654901  0.35172911  0.65250262    -0.05200
C242        C  0.41528137  0.32077296  0.64481894     0.00700
C243        C  0.44927309  0.31502869  0.67060356    -0.07800
C244        C  0.46040871  0.34915368  0.70025068    -0.05200
C245        C  0.43995520  0.38875616  0.70425514     0.00700
C246        C  0.39634615  0.38325236  0.68237196    -0.07800
C247        C  0.35687819  0.40708880  0.68992111     0.62600
H248        H  0.35518138  0.35112628  0.63518420     0.13300
H249        H  0.98875477  0.34867119  0.71931805     0.13300
C250        C  0.47542460  0.27533218  0.66706784     0.62900
F251        F  0.36083166  0.44503154  0.66474436    -0.22300
F252        F  0.36886971  0.43605682  0.72036242    -0.19600
F253        F  0.30104607  0.36026066  0.69073991    -0.19300
F254        F  0.51334330  0.29421433  0.64076367    -0.19400
F255        F  0.43252334  0.21713867  0.66170180    -0.19700
F256        F  0.00555642  0.27651532  0.69545149    -0.22400
C257        C  0.43939252  0.13435739  0.80902814    -0.05200
C258        C  0.41126902  0.09055756  0.83334299     0.00700
C259        C  0.39610832  0.03132679  0.82597547    -0.07800
C260        C  0.41307267  0.01923801  0.79527914    -0.05200
C261        C  0.44845185  0.06428212  0.77285486     0.00700
C262        C  0.45870661  0.12290829  0.77892949    -0.07800
C263        C  0.48883673  0.17589435  0.75601726     0.62600
H264        H  0.44739973  0.17900703  0.81383778     0.13300
H265        H  0.40231902  0.97425414  0.78965904     0.13300
C266        C  0.36520715  0.98155335  0.85096132     0.62900
F267        F  0.53394327  0.22258973  0.77295200    -0.22300
F268        F  0.45029616  0.19357688  0.74638931    -0.19600
F269        F  0.01018551  0.16466242  0.72780354    -0.19300
F270        F  0.30890900  0.96811996  0.85399773    -0.19400
F271        F  0.39258633  0.99831474  0.88173266    -0.19700
F272        F  0.36467447  0.93042281  0.84119999    -0.22400
C273        C  0.15959768  0.12546189  0.82690772    -0.05200
C274        C  0.19056415  0.09610497  0.83195554     0.00700
C275        C  0.19649356  0.06399819  0.80475687    -0.07800
C276        C  0.16378979  0.05547980  0.77548399    -0.05200
C277        C  0.12636331  0.07792864  0.77311941     0.00700
C278        C  0.13082936  0.11993036  0.79704374    -0.07800
C279        C  0.10827556  0.16171503  0.79146945     0.62600
H280        H  0.15904440  0.15469363  0.84610331     0.13300
H281        H  0.16345897  0.02700115  0.75562727     0.13300
C282        C  0.23514981  0.03720282  0.80656058     0.62900
F283        F  0.15130241  0.21949951  0.79797337    -0.22300
F284        F  0.06337265  0.14755559  0.81287538    -0.19600
F285        F  0.09084300  0.15941368  0.75887243    -0.19300
F286        F  0.21441498  0.99223621  0.82989439    -0.19400
F287        F  0.29019184  0.08069681  0.81527666    -0.19700
F288        F  0.23788453  0.01310361  0.77622414    -0.22400
C289        C  0.47065778  0.36892334  0.83594662    -0.05200
C290        C  0.41155437  0.33559959  0.84058759     0.00700
C291        C  0.37418465  0.33354740  0.81452499    -0.07800
C292        C  0.39845243  0.36922561  0.78606650    -0.05200
C293        C  0.45797072  0.40352474  0.78218214     0.00700
C294        C  0.49398156  0.39874053  0.80631278    -0.07800
C295        C  0.05677394  0.42098997  0.80167663     0.62600
H296        H  0.49941339  0.36861232  0.85494260     0.13300
H297        H  0.37110842  0.37194278  0.76713883     0.13300
C298        C  0.30944843  0.29388887  0.81613689     0.62900
F299        F  0.06869651  0.37629851  0.80915399    -0.22300
F300        F  0.08758662  0.46814666  0.82325416    -0.19600
F301        F  0.07322973  0.43745299  0.76930879    -0.19300
F302        F  0.28805824  0.31014035  0.84291659    -0.19400
F303        F  0.29573143  0.23530829  0.81943820    -0.19700
F304        F  0.28244875  0.29788213  0.78754418    -0.22400
Zn305      Zn  0.29805382  0.58627473  0.90906643     1.49700
Zn306      Zn  0.41477608  0.71044823  0.90935566     1.49400
Zn307      Zn  0.29657873  0.70835419  0.91133819     1.49100
Zn308      Zn  0.33831314  0.66732031  0.97627371     1.49500
O309        O  0.33710840  0.66802971  0.92753710    -1.83500
O310        O  0.34832137  0.57291209  0.87867478    -0.74200
O311        O  0.42500017  0.77662839  0.88027733    -0.74000
O312        O  0.23880447  0.65896665  0.87764928    -0.73500
O313        O  0.42542941  0.66183253  0.87483908    -0.74200
O314        O  0.23869950  0.57403907  0.87507763    -0.73800
O315        O  0.34348089  0.77722271  0.88201384    -0.74400
O316        O  0.29386818  0.71112242  0.99352165    -0.73800
O317        O  0.47750015  0.73861809  0.94458146    -0.74500
O318        O  0.26225431  0.73376454  0.94741330    -0.73900
O319        O  0.42642924  0.71116730  0.99141057    -0.74400
O320        O  0.29423488  0.57672842  0.99094176    -0.74300
O321        O  0.26513576  0.52230994  0.94415432    -0.74100
C322        C  0.39490936  0.60866572  0.86453550     0.77700
C323        C  0.39249672  0.79546968  0.86965395     0.78200
C324        C  0.22344456  0.60937419  0.86359097     0.77200
C325        C  0.26589193  0.73329583  0.97904702     0.77500
C326        C  0.47514570  0.73576948  0.97631581     0.78700
C327        C  0.26789780  0.52582055  0.97588064     0.77700
Zn328      Zn  0.33500859  0.67465797  0.49770028     1.49700
Zn329      Zn  0.41262939  0.70557669  0.56423886     1.49400
Zn330      Zn  0.30589891  0.72402119  0.56463178     1.49100
Zn331      Zn  0.28886798  0.59461949  0.56376078     1.49500
O332        O  0.33564229  0.67495786  0.54616761    -1.83500
O333        O  0.42267306  0.71855290  0.48217687    -0.74200
O334        O  0.42449698  0.75966175  0.60302250    -0.74000
O335        O  0.26891366  0.75031848  0.52921555    -0.73500
O336        O  0.47505195  0.74261775  0.52909704    -0.74200
O337        O  0.29001979  0.71859532  0.48245424    -0.73800
O338        O  0.36391255  0.79134003  0.59284972    -0.74400
O339        O  0.22419266  0.58639742  0.58966958    -0.73800
O340        O  0.41993959  0.64347485  0.58854119    -0.74500
O341        O  0.25006348  0.67970045  0.60061560    -0.73900
O342        O  0.32994256  0.57721582  0.59952483    -0.74400
O343        O  0.25925036  0.53074705  0.52885181    -0.74300
O344        O  0.28904310  0.58418441  0.48228138    -0.74100
C345        C  0.47189252  0.74240836  0.49728836     0.77700
C346        C  0.40155140  0.78985265  0.61162748     0.78200
C347        C  0.26630298  0.74464611  0.49749954     0.77200
C348        C  0.22175221  0.62509672  0.60783792     0.77500
C349        C  0.38291948  0.60091133  0.60603355     0.78700
C350        C  0.26208239  0.53367657  0.49723360     0.77700
C351        C  0.01434898  0.51802379  0.76841418     0.46000
H352        H  0.01680556  0.52315515  0.79604440    -0.03000
C353        C  0.00892806  0.50472657  0.70448165     0.46100
H354        H  0.00653733  0.99871599  0.67693922    -0.03000
C355        C  0.48341625  0.54755014  0.75112132    -0.16700
C356        C  0.07354499  0.54562687  0.75223458    -0.16400
C357        C  0.48162281  0.95236836  0.75713708    -0.16800
C358        C  0.48277931  0.54255511  0.71670876    -0.16800
C359        C  0.07095891  0.53546045  0.71860974    -0.16300
C360        C  0.47566208  0.94555332  0.72316792    -0.16700
Zn361      Zn  0.20115280  0.79356035  0.40993420     1.49700
Zn362      Zn  0.16353691  0.83595787  0.47679945     1.49400
Zn363      Zn  0.20403961  0.91735657  0.41098109     1.49100
Zn364      Zn  0.08397296  0.79503865  0.40987450     1.49500
O365        O  0.16294179  0.83503354  0.42787441    -1.83500
O366        O  0.23515369  0.76577062  0.44610740    -0.74200
O367        O  0.20852958  0.92633203  0.49258862    -0.74000
O368        O  0.26927686  0.93459887  0.38176198    -0.73500
O369        O  0.20936930  0.79305230  0.49276427    -0.74200
O370        O  0.26230552  0.84631288  0.37867581    -0.73800
O371        O  0.23345501  0.98028309  0.44618946    -0.74400
O372        O  0.07486351  0.84546818  0.37554272    -0.73800
O373        O  0.07593696  0.79228545  0.49265572    -0.74500
O374        O  0.15743634  0.93019428  0.37783120    -0.73900
O375        O  0.02321019  0.76851133  0.44589370    -0.74400
O376        O  0.06850360  0.72659148  0.38004871    -0.74300
O377        O  0.15064705  0.72706597  0.37839691    -0.74100
C378        C  0.23517220  0.76905272  0.47786576     0.77700
C379        C  0.23312860  0.97704188  0.47777996     0.78200
C380        C  0.28371797  0.89966447  0.36892158     0.77200
C381        C  0.10912928  0.89683637  0.36425381     0.77500
C382        C  0.02665303  0.76946660  0.47769042     0.78700
C383        C  0.09973654  0.70772276  0.36776084     0.77700
Zn384      Zn  0.20873355  0.91202785  0.06286940     1.49700
Zn385      Zn  0.16683381  0.82839027  0.99764162     1.49400
Zn386      Zn  0.20443912  0.78712700  0.06577198     1.49100
Zn387      Zn  0.08852562  0.78980932  0.06349398     1.49500
O388        O  0.16709298  0.82903492  0.04646576    -1.83500
O389        O  0.24286109  0.97373346  0.02719020    -0.74200
O390        O  0.21076980  0.78308215  0.98351975    -0.74000
O391        O  0.26300924  0.83705854  0.10045449    -0.73500
O392        O  0.21215535  0.91825591  0.98096774    -0.74200
O393        O  0.26743308  0.92401967  0.09645397    -0.73800
O394        O  0.23876917  0.75840665  0.03052022    -0.74400
O395        O  0.07121907  0.72370713  0.09517794    -0.73800
O396        O  0.07919503  0.78480089  0.98110079    -0.74500
O397        O  0.15135007  0.72025123  0.09513191    -0.73900
O398        O  0.02750443  0.76111074  0.02757962    -0.74400
O399        O  0.08079770  0.84467801  0.09404087    -0.74300
O400        O  0.16113518  0.93159742  0.09172988    -0.74100
C401        C  0.23953304  0.96951732  0.99555916     0.77700
C402        C  0.23689915  0.75957084  0.99874118     0.78200
C403        C  0.28138823  0.88982839  0.11086556     0.77200
C404        C  0.10170183  0.70301641  0.10652491     0.77500
C405        C  0.03027879  0.76190044  0.99588374     0.78700
C406        C  0.11243744  0.89781253  0.10416200     0.77700
C407        C  0.99807112  0.48692541  0.26889359     0.46000
H408        H  0.00324249  0.48792249  0.29647614    -0.03000
C409        C  0.98527622  0.48580422  0.20543217     0.46100
H410        H  0.98084194  0.48619666  0.17786291    -0.03000
C411        C  0.02676657  0.95685593  0.25031468    -0.16700
C412        C  0.43493486  0.95480003  0.25790982    -0.16400
C413        C  0.02494956  0.54967214  0.25416427    -0.16800
C414        C  0.01785595  0.95441378  0.21637876    -0.16800
C415        C  0.42771252  0.95582088  0.22395444    -0.16300
C416        C  0.01910918  0.54896647  0.22008639    -0.16700
C417        C  0.08483659  0.59295459  0.17405577    -0.05200
C418        C  0.04787891  0.59866548  0.19631107     0.00700
C419        C  0.02887797  0.63921660  0.18921669    -0.07800
C420        C  0.04606989  0.67086993  0.15899042    -0.05200
C421        C  0.08151232  0.66335008  0.13601806     0.00700
C422        C  0.10126053  0.62344958  0.14375369    -0.07800
C423        C  0.13740333  0.61059672  0.11985916     0.62600
H424        H  0.09898977  0.56184356  0.18012162     0.13300
H425        H  0.03326068  0.70338059  0.15360674     0.13300
C426        C  0.49454023  0.65273623  0.21409618     0.62900
F427        F  0.14073746  0.56131403  0.12939767    -0.22300
F428        F  0.19265839  0.65848882  0.11908538    -0.19600
F429        F  0.11338742  0.59938140  0.08815087    -0.19300
F430        F  0.44950425  0.60142664  0.22692392    -0.19400
F431        F  0.47201068  0.68500489  0.19961221    -0.19700
F432        F  0.53028675  0.68611843  0.24004972    -0.22400
C433        C  0.29979836  0.86726983  0.16792100    -0.05200
C434        C  0.31443473  0.90962895  0.14249268     0.00700
C435        C  0.35550586  0.96971617  0.14921502    -0.07800
C436        C  0.38305405  0.98394466  0.18034939    -0.05200
C437        C  0.37484532  0.94051991  0.20399212     0.00700
C438        C  0.32846413  0.88172555  0.19907825    -0.07800
C439        C  0.30638341  0.83505794  0.22634321     0.62600
H440        H  0.26489760  0.82251968  0.16324092     0.13300
H441        H  0.41704999  0.52885077  0.18467521     0.13300
C442        C  0.37392812  0.01826017  0.12310076     0.62900
F443        F  0.28230949  0.85194008  0.25128466    -0.22300
F444        F  0.34957521  0.82781161  0.23973767    -0.19600
F445        F  0.26441357  0.78008316  0.21444218    -0.19300
F446        F  0.33063282  0.53092342  0.11741677    -0.19400
F447        F  0.38691105  0.99996711  0.09360265    -0.19700
F448        F  0.42224027  0.57062293  0.13306797    -0.22400
C449        C  0.10117573  0.95679257  0.18893014    -0.05200
C450        C  0.04166302  0.93291280  0.19016849     0.00700
C451        C  0.00711719  0.89893249  0.16260055    -0.07800
C452        C  0.03346827  0.89587607  0.13363510    -0.05200
C453        C  0.09228243  0.91786309  0.13256015     0.00700
C454        C  0.12702819  0.94715122  0.16103994    -0.07800
C455        C  0.19024534  0.96629295  0.16257506     0.62600
H456        H  0.12725545  0.48350295  0.20977248     0.13300
H457        H  0.00702642  0.87205027  0.11213627     0.13300
C458        C  0.44234254  0.86326996  0.16241301     0.62900
F459        F  0.21412536  0.48906290  0.19364369    -0.22300
F460        F  0.21987927  0.01001919  0.13926018    -0.19600
F461        F  0.19714503  0.91793956  0.15615017    -0.19300
F462        F  0.42079125  0.89224432  0.14360873    -0.19400
F463        F  0.42087971  0.85425044  0.19407810    -0.19700
F464        F  0.42357688  0.80764424  0.14843787    -0.22400
C465        C  0.35969079  0.89488052  0.33949860    -0.05200
C466        C  0.32396097  0.91913889  0.34090781     0.00700
C467        C  0.32118808  0.95212166  0.31337171    -0.07800
C468        C  0.35641311  0.96085980  0.28571024    -0.05200
C469        C  0.39066632  0.93447909  0.28402085     0.00700
C470        C  0.39051889  0.89901796  0.31100261    -0.07800
C471        C  0.42071501  0.86323713  0.31112008     0.62600
H472        H  0.36111441  0.86928462  0.36046448     0.13300
H473        H  0.35809632  0.98900091  0.26536347     0.13300
C474        C  0.28064044  0.97672576  0.31256364     0.62900
F475        F  0.38494529  0.80711182  0.32379995    -0.21100
F476        F  0.96920515  0.39125873  0.33100938    -0.19600
F477        F  0.43517804  0.85542118  0.27958314    -0.19300
F478        F  0.29557473  0.01909750  0.33743088    -0.19400
F479        F  0.22499082  0.93115750  0.31720630    -0.19700
F480        F  0.28236414  0.00326886  0.28233954    -0.22400
C481        C  0.12000344  0.67475596  0.31395524    -0.05200
C482        C  0.07906285  0.66774460  0.33798671     0.00700
C483        C  0.02019830  0.62793123  0.33112694    -0.07800
C484        C  0.00505139  0.59601669  0.30093089    -0.05200
C485        C  0.04592893  0.60066164  0.27778450     0.00700
C486        C  0.10456273  0.64207412  0.28375294    -0.07800
C487        C  0.15046398  0.65517551  0.25798992     0.62600
H488        H  0.16453545  0.70756348  0.31859918     0.13300
H489        H  0.46046059  0.56460065  0.29565435     0.13300
C490        C  0.97325472  0.61671614  0.35580630     0.62900
F491        F  0.14528703  0.68773297  0.23242774    -0.22300
F492        F  0.14549136  0.60356430  0.24491497    -0.19600
F493        F  0.20502042  0.68824086  0.27161425    -0.19300
F494        F  0.96569977  0.66550242  0.35727558    -0.19400
F495        F  0.98769231  0.60575399  0.38712910    -0.19700
F496        F  0.42120993  0.56794828  0.34670904    -0.22400
C497        C  0.06885677  0.87140298  0.30728856    -0.05200
C498        C  0.09559488  0.91522038  0.33230101     0.00700
C499        C  0.11386418  0.97513788  0.32478215    -0.07800
C500        C  0.10032502  0.98784713  0.29326243    -0.05200
C501        C  0.06570668  0.94300324  0.27010494     0.00700
C502        C  0.05451867  0.88433948  0.27577628    -0.07800
C503        C  0.03132138  0.83629791  0.24887159     0.62600
H504        H  0.05996662  0.82674509  0.31256570     0.13300
H505        H  0.11043149  0.03269440  0.28824937     0.13300
C506        C  0.14352496  0.02506400  0.35043584     0.62900
F507        F  0.01775447  0.78145860  0.26169806    -0.22300
F508        F  0.07263539  0.35068528  0.22477655    -0.19600
F509        F  0.98244323  0.83010846  0.23404846    -0.19300
F510        F  0.19892302  0.03693723  0.35612991    -0.19400
F511        F  0.11348240  0.00896256  0.38003756    -0.19700
F512        F  0.64659615  0.07721847  0.33986786    -0.22400
C513        C  0.40218309  0.55612148  0.69415622    -0.05200
C514        C  0.45826347  0.56622106  0.69148808     0.00700
C515        C  0.48907155  0.59310355  0.66208763    -0.07800
C516        C  0.45976548  0.59412430  0.63378558    -0.05200
C517        C  0.40343456  0.58235835  0.63544076     0.00700
C518        C  0.37454188  0.56579570  0.66670245    -0.07800
C519        C  0.31565010  0.55886558  0.67143171     0.62600
H520        H  0.37946918  0.53874008  0.71724509     0.13300
H521        H  0.48344748  0.61040554  0.61075754     0.13300
C522        C  0.05351079  0.62830958  0.66034218     0.62900
F523        F  0.29854723  0.54795880  0.70440140    -0.22300
F524        F  0.27555451  0.51174872  0.65229100    -0.19600
F525        F  0.31649543  0.61046775  0.66207188    -0.19300
F526        F  0.07270661  0.59682889  0.64203272    -0.19400
F527        F  0.07793868  0.64156267  0.69169130    -0.19700
F528        F  0.07079420  0.68209074  0.64473194    -0.22400
C529        C  0.15099823  0.54346714  0.64164971    -0.05200
C530        C  0.18812625  0.60482634  0.63893856     0.00700
C531        C  0.19777925  0.64160089  0.66760012    -0.07800
C532        C  0.16338638  0.61600650  0.69588982    -0.05200
C533        C  0.12137912  0.55560409  0.69636870     0.00700
C534        C  0.12126705  0.51829535  0.67076193    -0.07800
C535        C  0.09331000  0.95221325  0.67347138     0.62600
H536        H  0.14644965  0.51382526  0.62125666     0.13300
H537        H  0.16579706  0.64405799  0.71656240     0.13300
C538        C  0.24341636  0.70693587  0.66885199     0.62900
F539        F  0.13198947  0.43401577  0.66476009    -0.22300
F540        F  0.54681875  0.42566280  0.65211849    -0.19600
F541        F  0.07713833  0.93414727  0.70569574    -0.19300
F542        F  0.23021913  0.73839356  0.64617533    -0.19400
F543        F  0.29617171  0.71316487  0.66153512    -0.19700
F544        F  0.24781631  0.73169017  0.70016077    -0.22400
C545        C  0.38651120  0.85187599  0.65251736    -0.05200
C546        C  0.41522367  0.82089932  0.64483428     0.00700
C547        C  0.44926258  0.81519953  0.67060546    -0.07800
C548        C  0.46042414  0.84934589  0.70024427    -0.05200
C549        C  0.43998811  0.88896196  0.70424380     0.00700
C550        C  0.39636040  0.88344842  0.68237288    -0.07800
C551        C  0.35690823  0.90730119  0.68992847     0.62600
H552        H  0.35512706  0.85126054  0.63520745     0.13300
H553        H  0.98878893  0.84887858  0.71930490     0.13300
C554        C  0.47543731  0.77552591  0.66706433     0.62900
F555        F  0.36083096  0.94521238  0.66474009    -0.22300
F556        F  0.36894308  0.93630873  0.72035857    -0.19600
F557        F  0.30107607  0.86047541  0.69077854    -0.19300
F558        F  0.51336960  0.79444685  0.64076649    -0.19400
F559        F  0.43255680  0.71732806  0.66168301    -0.19700
F560        F  0.00556321  0.77670239  0.69545075    -0.22400
C561        C  0.43936309  0.63426673  0.80898857    -0.05200
C562        C  0.41126151  0.59050843  0.83332596     0.00700
C563        C  0.39605778  0.53125464  0.82597615    -0.07800
C564        C  0.41301233  0.51912136  0.79528852    -0.05200
C565        C  0.44839128  0.56413265  0.77284768     0.00700
C566        C  0.45865047  0.62277063  0.77889436    -0.07800
C567        C  0.48874267  0.67572562  0.75595688     0.62600
H568        H  0.44737631  0.67892450  0.81377679     0.13300
H569        H  0.40224710  0.47412567  0.78968647     0.13300
C570        C  0.36509542  0.48149207  0.85096244     0.62900
F571        F  0.53381068  0.72248070  0.77288033    -0.22300
F572        F  0.45015629  0.69332310  0.74628834    -0.19600
F573        F  0.01014168  0.66449449  0.72776922    -0.19300
F574        F  0.30882801  0.46816228  0.85400209    -0.19400
F575        F  0.39248415  0.49821448  0.88173245    -0.19700
F576        F  0.36445429  0.43030407  0.84119881    -0.22400
C577        C  0.15953379  0.62528529  0.82693982    -0.05200
C578        C  0.19056666  0.59599416  0.83196170     0.00700
C579        C  0.19647019  0.56387351  0.80476030    -0.07800
C580        C  0.16372460  0.55532481  0.77550305    -0.05200
C581        C  0.12626806  0.57773890  0.77315757     0.00700
C582        C  0.13071592  0.61971946  0.79709219    -0.07800
C583        C  0.10813530  0.66148715  0.79153791     0.62600
H584        H  0.15897530  0.65450545  0.84614115     0.13300
H585        H  0.16338666  0.52684694  0.75564368     0.13300
C586        C  0.23514265  0.53709506  0.80654260     0.62900
F587        F  0.15116685  0.71927850  0.79802071    -0.22300
F588        F  0.06326275  0.64733475  0.81296818    -0.19600
F589        F  0.09065101  0.65916587  0.75895316    -0.19300
F590        F  0.21447591  0.49217441  0.82990328    -0.19400
F591        F  0.29020235  0.58061440  0.81520676    -0.19700
F592        F  0.23780473  0.51293689  0.77621036    -0.22400
C593        C  0.47076172  0.86899662  0.83588185    -0.05200
C594        C  0.41165697  0.83569906  0.84054363     0.00700
C595        C  0.37427971  0.83370585  0.81449997    -0.07800
C596        C  0.39854215  0.86941505  0.78605050    -0.05200
C597        C  0.45805771  0.90370215  0.78215437     0.00700
C598        C  0.49407274  0.89885099  0.80625289    -0.07800
C599        C  0.05684416  0.92102427  0.80157496     0.62600
H600        H  0.49952805  0.86863780  0.85485353     0.13300
H601        H  0.37119542  0.87217173  0.76713957     0.13300
C602        C  0.30953634  0.79410263  0.81612552     0.62900
F603        F  0.06867908  0.87623813  0.80895716    -0.22300
F604        F  0.08773722  0.96808611  0.82319678    -0.19600
F605        F  0.07328833  0.93759675  0.76921698    -0.19300
F606        F  0.28820099  0.81036000  0.84293004    -0.19400
F607        F  0.29575512  0.73549668  0.81939331    -0.19700
F608        F  0.28253450  0.79817127  0.78755375    -0.22400
Zn609      Zn  0.79795020  0.08623350  0.90907116     1.49700
Zn610      Zn  0.91468823  0.21037106  0.90939399     1.49400
Zn611      Zn  0.79650968  0.20833142  0.91138164     1.49100
Zn612      Zn  0.83823306  0.16728339  0.97630302     1.49500
O613        O  0.83701868  0.16797233  0.92756711    -1.83500
O614        O  0.84820913  0.07290311  0.87863659    -0.74200
O615        O  0.92485937  0.27647258  0.88028467    -0.74000
O616        O  0.73877708  0.15901496  0.87766637    -0.73500
O617        O  0.92541228  0.16177693  0.87490842    -0.74200
O618        O  0.73856421  0.07403047  0.87510256    -0.73800
O619        O  0.84342395  0.27723267  0.88209395    -0.74400
O620        O  0.79376136  0.21107115  0.99355008    -0.73800
O621        O  0.97742240  0.23862503  0.94460692    -0.74500
O622        O  0.76215467  0.23371385  0.94744072    -0.73900
O623        O  0.92636262  0.21117495  0.99143854    -0.74400
O624        O  0.79418603  0.07668423  0.99095753    -0.74300
O625        O  0.76508575  0.02226898  0.94416524    -0.74100
C626        C  0.89486292  0.10865067  0.86455325     0.77700
C627        C  0.89239700  0.29538692  0.86969697     0.78200
C628        C  0.72337986  0.10941815  0.86360591     0.77200
C629        C  0.76578762  0.23324669  0.97907302     0.77500
C630        C  0.97507774  0.23579437  0.97634039     0.78700
C631        C  0.76786213  0.02577825  0.97589273     0.77700
Zn632      Zn  0.83499682  0.17467744  0.49767617     1.49700
Zn633      Zn  0.91257353  0.20542649  0.56420248     1.49400
Zn634      Zn  0.80608701  0.22420743  0.56460228     1.49100
Zn635      Zn  0.78875066  0.09472804  0.56375974     1.49500
O636        O  0.83564324  0.17500230  0.54612950    -1.83500
O637        O  0.92265129  0.21855925  0.48215319    -0.74200
O638        O  0.92443412  0.25939907  0.60304531    -0.74000
O639        O  0.76900137  0.25042786  0.52919522    -0.73500
O640        O  0.97502088  0.24252745  0.52907469    -0.74200
O641        O  0.78999651  0.21859657  0.48243399    -0.73800
O642        O  0.86429348  0.29158506  0.59271588    -0.74400
O643        O  0.72394339  0.08663363  0.58949041    -0.73800
O644        O  0.91973726  0.14313530  0.58839482    -0.74500
O645        O  0.75038638  0.18000087  0.60066851    -0.73900
O646        O  0.82971037  0.07736424  0.59963506    -0.74400
O647        O  0.75923342  0.03080452  0.52887778    -0.74300
O648        O  0.78904262  0.08419918  0.48229188    -0.74100
C649        C  0.97186647  0.24237223  0.49726637     0.77700
C650        C  0.90168521  0.28980964  0.61158713     0.78200
C651        C  0.76631718  0.24468350  0.49748107     0.77200
C652        C  0.72181335  0.12536918  0.60779232     0.77500
C653        C  0.88270710  0.10083310  0.60603000     0.78700
C654        C  0.76208805  0.03370602  0.49725884     0.77700
C655        C  0.51444226  0.01821822  0.76839708     0.46000
H656        H  0.51691535  0.02334522  0.79602768    -0.03000
C657        C  0.50897711  0.00493190  0.70446360     0.46100
H658        H  0.50651241  0.49851723  0.67695664    -0.03000
C659        C  0.98349697  0.04774791  0.75111718    -0.16700
C660        C  0.57362788  0.04581931  0.75220433    -0.16400
C661        C  0.98153980  0.45217263  0.75715632    -0.16800
C662        C  0.98283833  0.04276152  0.71670194    -0.16800
C663        C  0.57101749  0.03566504  0.71857710    -0.16300
C664        C  0.97560749  0.44534796  0.72318546    -0.16700
Zn665      Zn  0.70109991  0.29352001  0.40991160     1.49700
Zn666      Zn  0.66350394  0.33593539  0.47676976     1.49400
Zn667      Zn  0.70400380  0.41731736  0.41095079     1.49100
Zn668      Zn  0.58392349  0.29501315  0.40984583     1.49500
O669        O  0.66289706  0.33500052  0.42784584    -1.83500
O670        O  0.73511180  0.26574519  0.44608898    -0.74200
O671        O  0.70850078  0.42630895  0.49255027    -0.74000
O672        O  0.76924254  0.43455016  0.38173688    -0.73500
O673        O  0.70935400  0.29305766  0.49274403    -0.74200
O674        O  0.76224677  0.34625470  0.37864595    -0.73800
O675        O  0.73341934  0.48026745  0.44615408    -0.74400
O676        O  0.57479714  0.34542836  0.37551364    -0.73800
O677        O  0.57590937  0.29225672  0.49263033    -0.74500
O678        O  0.65740673  0.43011567  0.37778412    -0.73900
O679        O  0.52317485  0.26848649  0.44587060    -0.74400
O680        O  0.56844987  0.22657816  0.38001193    -0.74300
O681        O  0.65058881  0.22703448  0.37837716    -0.74100
C682        C  0.73515366  0.26905420  0.47784728     0.77700
C683        C  0.73310094  0.47702164  0.47774483     0.78200
C684        C  0.78367069  0.39960798  0.36889341     0.77200
C685        C  0.60908997  0.39677770  0.36421329     0.77500
C686        C  0.52662403  0.26943855  0.47766717     0.78700
C687        C  0.59968708  0.20770810  0.36773107     0.77700
Zn688      Zn  0.70874852  0.41209026  0.06286465     1.49700
Zn689      Zn  0.66678906  0.32842465  0.99764069     1.49400
Zn690      Zn  0.70439226  0.28716713  0.06577915     1.49100
Zn691      Zn  0.58849996  0.28988036  0.06349392     1.49500
O692        O  0.66706826  0.32909051  0.04646435    -1.83500
O693        O  0.74288404  0.47378220  0.02717990    -0.74200
O694        O  0.71069517  0.28307048  0.98353178    -0.74000
O695        O  0.76298692  0.33709029  0.10045655    -0.73500
O696        O  0.71214128  0.41829693  0.98096077    -0.74200
O697        O  0.76746066  0.42407362  0.09644931    -0.73800
O698        O  0.73868273  0.25839677  0.03053767    -0.74400
O699        O  0.57115410  0.22375638  0.09517263    -0.73800
O700        O  0.57913361  0.28483907  0.98111082    -0.74500
O701        O  0.65128306  0.22030086  0.09513258    -0.73900
O702        O  0.52746182  0.26118915  0.02759483    -0.74400
O703        O  0.58081397  0.34477764  0.09402810    -0.74300
O704        O  0.66115829  0.43169296  0.09171252    -0.74100
C705        C  0.73954431  0.46956101  0.99554933     0.77700
C706        C  0.73680732  0.25954437  0.99875919     0.78200
C707        C  0.78139958  0.38986966  0.11086237     0.77200
C708        C  0.60162778  0.20305240  0.10651632     0.77500
C709        C  0.53022197  0.26195346  0.99589966     0.78700
C710        C  0.61245553  0.39791588  0.10414188     0.77700
C711        C  0.49806494  0.98695071  0.26888942     0.46000
H712        H  0.50324016  0.98797845  0.29647200    -0.03000
C713        C  0.48526781  0.98578046  0.20542791     0.46100
H714        H  0.48083455  0.98615939  0.17785879    -0.03000
C715        C  0.52675946  0.45683302  0.25030273    -0.16700
C716        C  0.93494256  0.45479588  0.25790980    -0.16400
C717        C  0.52492411  0.04968178  0.25414377    -0.16800
C718        C  0.51784954  0.45441820  0.21637030    -0.16800
C719        C  0.92772053  0.45584085  0.22395691    -0.16300
C720        C  0.51908031  0.04895310  0.22006684    -0.16700
C721        C  0.58477420  0.09295776  0.17402435    -0.05200
C722        C  0.54780627  0.09864498  0.19628237     0.00700
C723        C  0.52876247  0.13916246  0.18918597    -0.07800
C724        C  0.54594657  0.17082567  0.15896231    -0.05200
C725        C  0.58142219  0.16335105  0.13599498     0.00700
C726        C  0.60119296  0.12346593  0.14372600    -0.07800
C727        C  0.63735614  0.11064189  0.11983082     0.62600
H728        H  0.59894366  0.06185635  0.18008642     0.13300
H729        H  0.53310961  0.20331461  0.15357869     0.13300
C730        C  0.99438597  0.15264163  0.21405940     0.62900
F731        F  0.64071998  0.06137268  0.12936707    -0.22300
F732        F  0.69260078  0.15855327  0.11905852    -0.19600
F733        F  0.61334081  0.09942214  0.08812215    -0.19300
F734        F  0.94935898  0.10131627  0.22687837    -0.19400
F735        F  0.97183798  0.18489171  0.19957253    -0.19700
F736        F  0.03010498  0.18602338  0.24002122    -0.22400
C737        C  0.79980848  0.36730138  0.16791700    -0.05200
C738        C  0.81445697  0.40966305  0.14248916     0.00700
C739        C  0.85553929  0.46974695  0.14921580    -0.07800
C740        C  0.88305964  0.48397493  0.18036004    -0.05200
C741        C  0.87484917  0.44054303  0.20399721     0.00700
C742        C  0.82846564  0.38174938  0.19907714    -0.07800
C743        C  0.80636327  0.33507790  0.22634037     0.62600
H744        H  0.76490395  0.32255434  0.16323423     0.13300
H745        H  0.91705823  0.02881381  0.18464935     0.13300
C746        C  0.87401624  0.51828227  0.12309329     0.62900
F747        F  0.78231693  0.35198250  0.25128681    -0.22300
F748        F  0.84953537  0.32779053  0.23972661    -0.19600
F749        F  0.76436295  0.28011701  0.21444066    -0.19300
F750        F  0.83051934  0.03087868  0.11746595    -0.19400
F751        F  0.88703465  0.49996357  0.09361629    -0.19700
F752        F  0.92215377  0.07060851  0.13306300    -0.22400
C753        C  0.60118543  0.45687437  0.18890826    -0.05200
C754        C  0.54166702  0.43294528  0.19015630     0.00700
C755        C  0.50712096  0.39895705  0.16259299    -0.07800
C756        C  0.53347300  0.39593245  0.13362124    -0.05200
C757        C  0.59229665  0.41796826  0.13253532     0.00700
C758        C  0.62704947  0.44728312  0.16100805    -0.07800
C759        C  0.69029482  0.46653577  0.16252014     0.62600
H760        H  0.62724818  0.98340552  0.20979747     0.13300
H761        H  0.50702653  0.37208852  0.11212736     0.13300
C762        C  0.94234813  0.36325151  0.16241618     0.62900
F763        F  0.71407279  0.98882079  0.19369921    -0.22300
F764        F  0.71985681  0.51030126  0.13921213    -0.19600
F765        F  0.69729437  0.41825440  0.15606708    -0.19300
F766        F  0.92075573  0.39215459  0.14358230    -0.19400
F767        F  0.92088655  0.35428115  0.19408039    -0.19700
F768        F  0.92362372  0.30760600  0.14848027    -0.22400
C769        C  0.85963458  0.39480143  0.33947048    -0.05200
C770        C  0.82392104  0.41908148  0.34088355     0.00700
C771        C  0.82117797  0.45209637  0.31335494    -0.07800
C772        C  0.85643772  0.46087121  0.28570784    -0.05200
C773        C  0.89066911  0.43446780  0.28401354     0.00700
C774        C  0.89047835  0.39895651  0.31097823    -0.07800
C775        C  0.92062140  0.36312113  0.31107664     0.62600
H776        H  0.86102697  0.36916888  0.36042605     0.13300
H777        H  0.85814995  0.48904152  0.26536996     0.13300
C778        C  0.78060210  0.47666529  0.31252726     0.62900
F779        F  0.88477127  0.30696305  0.32369210    -0.21100
F780        F  0.46934669  0.89148381  0.33100742    -0.19600
F781        F  0.93515871  0.35538966  0.27954170    -0.19300
F782        F  0.79545207  0.51898842  0.33741323    -0.19400
F783        F  0.72495314  0.43106004  0.31712064    -0.19700
F784        F  0.78237848  0.50325606  0.28231136    -0.22400
C785        C  0.61996865  0.17477055  0.31392148    -0.05200
C786        C  0.57902655  0.16774193  0.33795573     0.00700
C787        C  0.52016679  0.12791171  0.33110359    -0.07800
C788        C  0.50501631  0.09602726  0.30089923    -0.05200
C789        C  0.54589519  0.10068008  0.27775161     0.00700
C790        C  0.60452972  0.14208204  0.28372221    -0.07800
C791        C  0.65043610  0.15514274  0.25796946     0.62600
H792        H  0.66449937  0.20758306  0.31856495     0.13300
H793        H  0.96042353  0.06461695  0.29562206     0.13300
C794        C  0.47323362  0.11665164  0.35579905     0.62900
F795        F  0.64528878  0.18769257  0.23239207    -0.22300
F796        F  0.64544210  0.10351034  0.24491241    -0.19600
F797        F  0.70498880  0.18819235  0.27160111    -0.19300
F798        F  0.46555163  0.16535992  0.35722449    -0.19400
F799        F  0.48776520  0.10583498  0.38713196    -0.19700
F800        F  0.92123528  0.06777380  0.34674944    -0.22400
C801        C  0.56883706  0.37135498  0.30724265    -0.05200
C802        C  0.59557488  0.41516692  0.33225819     0.00700
C803        C  0.61387526  0.47509167  0.32474018    -0.07800
C804        C  0.60035025  0.48781468  0.29322177    -0.05200
C805        C  0.56571519  0.44297718  0.27006836     0.00700
C806        C  0.55452203  0.38431085  0.27572940    -0.07800
C807        C  0.53135144  0.33629672  0.24880982     0.62600
H808        H  0.55993111  0.32669102  0.31251779     0.13300
H809        H  0.61047043  0.53266641  0.28820947     0.13300
C810        C  0.64354721  0.52501135  0.35039575     0.62900
F811        F  0.51782622  0.28145677  0.26161474    -0.22300
F812        F  0.57260260  0.85063249  0.22484414    -0.19600
F813        F  0.48245561  0.33008446  0.23399918    -0.19300
F814        F  0.69892862  0.53684397  0.35610390    -0.19400
F815        F  0.61348323  0.50892421  0.37999014    -0.19700
F816        F  0.14666666  0.57718565  0.33982308    -0.22400
C817        C  0.90219580  0.05630759  0.69419245    -0.05200
C818        C  0.95826459  0.06638325  0.69148556     0.00700
C819        C  0.98897406  0.09313143  0.66203764    -0.07800
C820        C  0.95957537  0.09402676  0.63374918    -0.05200
C821        C  0.90326851  0.08233635  0.63544946     0.00700
C822        C  0.87447364  0.06589285  0.66674565    -0.07800
C823        C  0.81558745  0.05895463  0.67151661     0.62600
H824        H  0.87954819  0.03900550  0.71730769     0.13300
H825        H  0.98318834  0.11018087  0.61069059     0.13300
C826        C  0.55341106  0.12834983  0.66022094     0.62900
F827        F  0.79856210  0.04810269  0.70450077    -0.22300
F828        F  0.77545703  0.01179551  0.65241460    -0.19600
F829        F  0.81639208  0.11053038  0.66214476    -0.19300
F830        F  0.57257710  0.09682673  0.64192401    -0.19400
F831        F  0.57793648  0.14172362  0.69154526    -0.19700
F832        F  0.57061921  0.18206814  0.64455332    -0.22400
C833        C  0.65105795  0.04372288  0.64160028    -0.05200
C834        C  0.68821544  0.10508221  0.63890790     0.00700
C835        C  0.69785666  0.14183154  0.66758102    -0.07800
C836        C  0.66343275  0.11621932  0.69585754    -0.05200
C837        C  0.62142037  0.05581983  0.69632206     0.00700
C838        C  0.62129140  0.01852827  0.67069880    -0.07800
C839        C  0.59340211  0.45199836  0.67358051     0.62600
H840        H  0.64648993  0.01409053  0.62119823     0.13300
H841        H  0.66583022  0.14425534  0.71653488     0.13300
C842        C  0.74351309  0.20715616  0.66886478     0.62900
F843        F  0.63178009  0.93411765  0.66456822    -0.22300
F844        F  0.04666184  0.92600080  0.65204982    -0.19600
F845        F  0.57716000  0.43395956  0.70580098    -0.19300
F846        F  0.73039950  0.23865377  0.64616950    -0.19400
F847        F  0.79627402  0.21335515  0.66160208    -0.19700
F848        F  0.74784466  0.23188756  0.70017262    -0.22400
C849        C  0.88654856  0.35172904  0.65250245    -0.05200
C850        C  0.91528089  0.32077277  0.64481903     0.00700
C851        C  0.94927222  0.31502837  0.67060387    -0.07800
C852        C  0.96040745  0.34915325  0.70025100    -0.05200
C853        C  0.93995409  0.38875591  0.70425521     0.00700
C854        C  0.89634533  0.38325219  0.68237179    -0.07800
C855        C  0.85687738  0.40708871  0.68992070     0.62600
H856        H  0.85518117  0.35112634  0.63518384     0.13300
H857        H  0.48875624  0.34867165  0.71931756     0.13300
C858        C  0.97542388  0.27533200  0.66706831     0.62900
F859        F  0.86083143  0.44503175  0.66474399    -0.22300
F860        F  0.86886846  0.43605644  0.72036208    -0.19600
F861        F  0.80104518  0.36026067  0.69073918    -0.19300
F862        F  0.01334271  0.29421417  0.64076421    -0.19400
F863        F  0.93252275  0.21713845  0.66170227    -0.19700
F864        F  0.50555723  0.27651533  0.69545094    -0.22400
C865        C  0.93939239  0.13435710  0.80902814    -0.05200
C866        C  0.91126886  0.09055734  0.83334301     0.00700
C867        C  0.89610804  0.03132651  0.82597553    -0.07800
C868        C  0.91307236  0.01923763  0.79527921    -0.05200
C869        C  0.94845150  0.06428165  0.77285488     0.00700
C870        C  0.95870632  0.12290785  0.77892947    -0.07800
C871        C  0.98883625  0.17589381  0.75601716     0.62600
H872        H  0.94739967  0.17900679  0.81383775     0.13300
H873        H  0.90231867  0.97425375  0.78965915     0.13300
C874        C  0.86520679  0.98155312  0.85096140     0.62900
F875        F  0.03394284  0.22258931  0.77295180    -0.22300
F876        F  0.95029551  0.19357617  0.74638931    -0.19600
F877        F  0.51018614  0.16466301  0.72780370    -0.19300
F878        F  0.80890871  0.96811991  0.85399784    -0.19400
F879        F  0.89258603  0.99831448  0.88173272    -0.19700
F880        F  0.86467388  0.93042247  0.84120006    -0.22400
C881        C  0.65959785  0.12546199  0.82690790    -0.05200
C882        C  0.69056422  0.09610497  0.83195574     0.00700
C883        C  0.69649374  0.06399831  0.80475705    -0.07800
C884        C  0.66379017  0.05548013  0.77548412    -0.05200
C885        C  0.62636373  0.07792901  0.77311953     0.00700
C886        C  0.63082976  0.11993067  0.79704387    -0.07800
C887        C  0.60827615  0.16171547  0.79146953     0.62600
H888        H  0.65904450  0.15469366  0.84610350     0.13300
H889        H  0.66345943  0.02700158  0.75562738     0.13300
C890        C  0.73514983  0.03720277  0.80656081     0.62900
F891        F  0.65130311  0.21949990  0.79797346    -0.22300
F892        F  0.56337322  0.14755617  0.81287542    -0.19600
F893        F  0.59084368  0.15941416  0.75887250    -0.19300
F894        F  0.71441481  0.99223616  0.82989462    -0.19400
F895        F  0.79019187  0.08069666  0.81527694    -0.19700
F896        F  0.73788455  0.01310350  0.77622440    -0.22400
C897        C  0.97065747  0.36892344  0.83594657    -0.05200
C898        C  0.91155407  0.33559949  0.84058758     0.00700
C899        C  0.87418421  0.33354717  0.81452500    -0.07800
C900        C  0.89845182  0.36922553  0.78606656    -0.05200
C901        C  0.95797007  0.40352480  0.78218215     0.00700
C902        C  0.99398108  0.39874071  0.80631272    -0.07800
C903        C  0.55677439  0.42098950  0.80167676     0.62600
H904        H  0.99941320  0.36861254  0.85494253     0.13300
H905        H  0.87110770  0.37194269  0.76713894     0.13300
C906        C  0.80944802  0.29388836  0.81613691     0.62900
F907        F  0.56869665  0.37629783  0.80915414    -0.22300
F908        F  0.58758713  0.46814606  0.82325435    -0.19600
F909        F  0.57323043  0.43745261  0.76930895    -0.19300
F910        F  0.78805770  0.31013973  0.84291659    -0.19400
F911        F  0.79573128  0.23530786  0.81943827    -0.19700
F912        F  0.78244824  0.29788139  0.78754419    -0.22400
Zn913      Zn  0.79805403  0.58627481  0.90906693     1.49700
Zn914      Zn  0.91477606  0.71044832  0.90935594     1.49400
Zn915      Zn  0.79657895  0.70835427  0.91133850     1.49100
Zn916      Zn  0.83831324  0.66732035  0.97627406     1.49500
O917        O  0.83710857  0.66802982  0.92753748    -1.83500
O918        O  0.84832148  0.57291185  0.87867542    -0.74200
O919        O  0.92500026  0.77662853  0.88027754    -0.74000
O920        O  0.73880466  0.65896660  0.87764970    -0.73500
O921        O  0.92542916  0.66183245  0.87483940    -0.74200
O922        O  0.73869975  0.57403905  0.87507813    -0.73800
O923        O  0.84348096  0.77722279  0.88201408    -0.74400
O924        O  0.79386828  0.71112247  0.99352192    -0.73800
O925        O  0.97750010  0.73861814  0.94458172    -0.74500
O926        O  0.76225452  0.73376461  0.94741353    -0.73900
O927        O  0.92642933  0.71116740  0.99141090    -0.74400
O928        O  0.79423492  0.57672846  0.99094221    -0.74300
O929        O  0.76513583  0.52231009  0.94415475    -0.74100
C930        C  0.89490923  0.60866553  0.86453596     0.77700
C931        C  0.89249674  0.79546975  0.86965413     0.78200
C932        C  0.72344478  0.60937412  0.86359144     0.77200
C933        C  0.76589207  0.73329587  0.97904725     0.77500
C934        C  0.97514573  0.73576957  0.97631607     0.78700
C935        C  0.76789782  0.52582062  0.97588105     0.77700
Zn936      Zn  0.83500837  0.67465782  0.49770024     1.49700
Zn937      Zn  0.91262852  0.70557496  0.56423883     1.49400
Zn938      Zn  0.80590013  0.72402211  0.56463190     1.49100
Zn939      Zn  0.78886639  0.59461979  0.56376072     1.49500
O940        O  0.83564192  0.67495776  0.54616746    -1.83500
O941        O  0.92267285  0.71855264  0.48217698    -0.74200
O942        O  0.92449600  0.75965897  0.60302311    -0.74000
O943        O  0.76891393  0.75031871  0.52921576    -0.73500
O944        O  0.97505149  0.74261677  0.52909724    -0.74200
O945        O  0.79001977  0.71859538  0.48245438    -0.73800
O946        O  0.86391557  0.79134177  0.59284871    -0.74400
O947        O  0.72418964  0.58639859  0.58966786    -0.73800
O948        O  0.91993739  0.64347140  0.58854005    -0.74500
O949        O  0.75006638  0.67970217  0.60061669    -0.73900
O950        O  0.82994001  0.57721646  0.59952573    -0.74400
O951        O  0.75924983  0.53074708  0.52885184    -0.74300
O952        O  0.78904285  0.58418429  0.48228137    -0.74100
C953        C  0.97189224  0.74240782  0.49728855     0.77700
C954        C  0.90155224  0.78985198  0.61162738     0.78200
C955        C  0.76630306  0.74464622  0.49749974     0.77200
C956        C  0.72175265  0.62509808  0.60783791     0.77500
C957        C  0.88291709  0.60091009  0.60603359     0.78700
C958        C  0.76208210  0.53367650  0.49723363     0.77700
C959        C  0.51434978  0.51802380  0.76841423     0.46000
H960        H  0.51680614  0.52315510  0.79604446    -0.03000
C961        C  0.50892942  0.50472673  0.70448170     0.46100
H962        H  0.50653790  0.99871651  0.67693931    -0.03000
C963        C  0.98341523  0.54755000  0.75112140    -0.16700
C964        C  0.57354592  0.54562687  0.75223480    -0.16400
C965        C  0.98162243  0.95236783  0.75713699    -0.16800
C966        C  0.98277798  0.54255489  0.71670884    -0.16800
C967        C  0.57096014  0.53546054  0.71860998    -0.16300
C968        C  0.97566170  0.94555275  0.72316783    -0.16700
Zn969      Zn  0.70115303  0.79356046  0.40993424     1.49700
Zn970      Zn  0.66353709  0.83595803  0.47679941     1.49400
Zn971      Zn  0.70403981  0.91735672  0.41098106     1.49100
Zn972      Zn  0.58397326  0.79503875  0.40987441     1.49500
O973        O  0.66294205  0.83503366  0.42787437    -1.83500
O974        O  0.73515378  0.76577071  0.44610758    -0.74200
O975        O  0.70852956  0.92633213  0.49258860    -0.74000
O976        O  0.76927708  0.93459906  0.38176194    -0.73500
O977        O  0.70936936  0.79305243  0.49276442    -0.74200
O978        O  0.76230578  0.84631307  0.37867581    -0.73800
O979        O  0.73345521  0.98028323  0.44618946    -0.74400
O980        O  0.57486388  0.84546815  0.37554258    -0.73800
O981        O  0.57593715  0.79228574  0.49265552    -0.74500
O982        O  0.65743646  0.93019448  0.37783119    -0.73900
O983        O  0.52321041  0.76851165  0.44589349    -0.74400
O984        O  0.56850381  0.72659149  0.38004867    -0.74300
O985        O  0.65064728  0.72706603  0.37839692    -0.74100
C986        C  0.73517226  0.76905282  0.47786594     0.77700
C987        C  0.73312866  0.97704199  0.47777996     0.78200
C988        C  0.78371819  0.89966464  0.36892156     0.77200
C989        C  0.60912950  0.89683642  0.36425374     0.77500
C990        C  0.52665325  0.76946697  0.47769021     0.78700
C991        C  0.59973678  0.70772279  0.36776082     0.77700
Zn992      Zn  0.70873335  0.91202771  0.06286942     1.49700
Zn993      Zn  0.66683388  0.82839024  0.99764163     1.49400
Zn994      Zn  0.70443909  0.78712705  0.06577204     1.49100
Zn995      Zn  0.58852540  0.78980901  0.06349387     1.49500
O996        O  0.66709286  0.82903480  0.04646574    -1.83500
O997        O  0.74286093  0.97373343  0.02719027    -0.74200
O998        O  0.71076992  0.78308215  0.98351987    -0.74000
O999        O  0.76300916  0.83705862  0.10045456    -0.73500
O1000       O  0.71215550  0.91825592  0.98096780    -0.74200
O1001       O  0.76743296  0.92401971  0.09645401    -0.73800
O1002       O  0.73876923  0.75840668  0.03052039    -0.74400
O1003       O  0.57121873  0.72370659  0.09517771    -0.73800
O1004       O  0.57919504  0.78480086  0.98110070    -0.74500
O1005       O  0.65135007  0.72025133  0.09513197    -0.73900
O1006       O  0.52750425  0.76111051  0.02757945    -0.74400
O1007       O  0.58079742  0.84467761  0.09404083    -0.74300
O1008       O  0.66113490  0.93159704  0.09172994    -0.74100
C1009       C  0.73953306  0.96951733  0.99555923     0.77700
C1010       C  0.73689926  0.75957086  0.99874136     0.78200
C1011       C  0.78138813  0.88982846  0.11086562     0.77200
C1012       C  0.60170169  0.70301620  0.10652482     0.77500
C1013       C  0.53027872  0.76190032  0.99588357     0.78700
C1014       C  0.61243715  0.89781210  0.10416203     0.77700
C1015       C  0.49807099  0.48692542  0.26889361     0.46000
H1016       H  0.50324233  0.48792252  0.29647616    -0.03000
C1017       C  0.48527615  0.48580414  0.20543218     0.46100
H1018       H  0.48084189  0.48619653  0.17786292    -0.03000
C1019       C  0.52676626  0.95685552  0.25031470    -0.16700
C1020       C  0.93493508  0.95480026  0.25790979    -0.16400
C1021       C  0.52494952  0.54967213  0.25416426    -0.16800
C1022       C  0.51785558  0.95441332  0.21637878    -0.16800
C1023       C  0.92771277  0.95582115  0.22395440    -0.16300
C1024       C  0.51910921  0.54896643  0.22008638    -0.16700
C1025       C  0.58483654  0.59295446  0.17405570    -0.05200
C1026       C  0.54787895  0.59866542  0.19631103     0.00700
C1027       C  0.52887809  0.63921660  0.18921668    -0.07800
C1028       C  0.54606993  0.67086989  0.15899038    -0.05200
C1029       C  0.58151225  0.66334994  0.13601799     0.00700
C1030       C  0.60126046  0.62344945  0.14375361    -0.07800
C1031       C  0.63740328  0.61059658  0.11985910     0.62600
H1032       H  0.59898968  0.56184340  0.18012153     0.13300
H1033       H  0.53326075  0.70338056  0.15360671     0.13300
C1034       C  0.99454007  0.65273623  0.21409619     0.62900
F1035       F  0.64073730  0.56131381  0.12939758    -0.22300
F1036       F  0.69265838  0.65848863  0.11908541    -0.19600
F1037       F  0.61338749  0.59938142  0.08815079    -0.19300
F1038       F  0.94950409  0.60142663  0.22692394    -0.19400
F1039       F  0.97201053  0.68500490  0.19961222    -0.19700
F1040       F  0.03028659  0.68611842  0.24004973    -0.22400
C1041       C  0.79979841  0.86726995  0.16792103    -0.05200
C1042       C  0.81443467  0.90962904  0.14249271     0.00700
C1043       C  0.85550589  0.96971624  0.14921499    -0.07800
C1044       C  0.88305422  0.98394477  0.18034931    -0.05200
C1045       C  0.87484554  0.94052009  0.20399206     0.00700
C1046       C  0.82846431  0.88172573  0.19907825    -0.07800
C1047       C  0.80638370  0.83505815  0.22634321     0.62600
H1048       H  0.76489763  0.82251974  0.16324097     0.13300
H1049       H  0.91704989  0.52885060  0.18467522     0.13300
C1050       C  0.87392814  0.01826015  0.12310067     0.62900
F1051       F  0.78230971  0.85194021  0.25128466    -0.22300
F1052       F  0.84957558  0.82781193  0.23973766    -0.19600
F1053       F  0.76441395  0.78008333  0.21444218    -0.19300
F1054       F  0.83063222  0.53092305  0.11741703    -0.19400
F1055       F  0.88691093  0.99996691  0.09360260    -0.19700
F1056       F  0.92223985  0.57062286  0.13306798    -0.22400
C1057       C  0.60117535  0.95679219  0.18893016    -0.05200
C1058       C  0.54166264  0.93291231  0.19016852     0.00700
C1059       C  0.50711682  0.89893190  0.16260061    -0.07800
C1060       C  0.53346791  0.89587547  0.13363517    -0.05200
C1061       C  0.59228210  0.91786258  0.13256021     0.00700
C1062       C  0.62702785  0.94715081  0.16103999    -0.07800
C1063       C  0.69024500  0.96629248  0.16257523     0.62600
H1064       H  0.62725518  0.48350276  0.20977253     0.13300
H1065       H  0.50702606  0.87204962  0.11213637     0.13300
C1066       C  0.94234291  0.86327053  0.16241294     0.62900
F1067       F  0.71412500  0.48906256  0.19364390    -0.22300
F1068       F  0.71987912  0.01001872  0.13926038    -0.19600
F1069       F  0.69714465  0.91793905  0.15615041    -0.19300
F1070       F  0.92079156  0.89224495  0.14360873    -0.19400
F1071       F  0.92088008  0.85425083  0.19407802    -0.19700
F1072       F  0.92357732  0.80764489  0.14843771    -0.22400
C1073       C  0.85969112  0.89488083  0.33949861    -0.05200
C1074       C  0.82396117  0.91913905  0.34090778     0.00700
C1075       C  0.82118815  0.95212168  0.31337163    -0.07800
C1076       C  0.85641327  0.96085993  0.28571020    -0.05200
C1077       C  0.89066654  0.93447929  0.28402082     0.00700
C1078       C  0.89051917  0.89901822  0.31100260    -0.07800
C1079       C  0.92071523  0.86323734  0.31112006     0.62600
H1080       H  0.86111481  0.86928501  0.36046452     0.13300
H1081       H  0.85809647  0.98900105  0.26536344     0.13300
C1082       C  0.78064031  0.97672554  0.31256347     0.62900
F1083       F  0.88494535  0.80711193  0.32379976    -0.21100
F1084       F  0.46920493  0.39125878  0.33100940    -0.19600
F1085       F  0.93517857  0.85542167  0.27958315    -0.19300
F1086       F  0.79557450  0.01909742  0.33743061    -0.19400
F1087       F  0.72499077  0.93115720  0.31720620    -0.19700
F1088       F  0.78236383  0.00326836  0.28233930    -0.22400
C1089       C  0.62000360  0.67475594  0.31395519    -0.05200
C1090       C  0.57906308  0.66774458  0.33798670     0.00700
C1091       C  0.52019852  0.62793117  0.33112700    -0.07800
C1092       C  0.50505149  0.59601671  0.30093092    -0.05200
C1093       C  0.54592896  0.60066164  0.27778449     0.00700
C1094       C  0.60456278  0.64207404  0.28375290    -0.07800
C1095       C  0.65046397  0.65517519  0.25798988     0.62600
H1096       H  0.66453563  0.70756345  0.31859909     0.13300
H1097       H  0.96046054  0.56460060  0.29565429     0.13300
C1098       C  0.47325505  0.61671601  0.35580644     0.62900
F1099       F  0.64528708  0.68773257  0.23242764    -0.22300
F1100       F  0.64549123  0.60356387  0.24491503    -0.19600
F1101       F  0.70502043  0.68824053  0.27161417    -0.19300
F1102       F  0.46569988  0.66550214  0.35727568    -0.19400
F1103       F  0.48769292  0.60575416  0.38712923    -0.19700
F1104       F  0.92120954  0.56794860  0.34670876    -0.22400
C1105       C  0.56885685  0.87140289  0.30728853    -0.05200
C1106       C  0.59559501  0.91522036  0.33230095     0.00700
C1107       C  0.61386417  0.97513780  0.32478206    -0.07800
C1108       C  0.60032488  0.98784692  0.29326235    -0.05200
C1109       C  0.56570648  0.94300295  0.27010491     0.00700
C1110       C  0.55451857  0.88433925  0.27577627    -0.07800
C1111       C  0.53132121  0.83629759  0.24887164     0.62600
H1112       H  0.55996680  0.82674509  0.31256568     0.13300
H1113       H  0.61043130  0.03269414  0.28824925     0.13300
C1114       C  0.64352507  0.02506405  0.35043566     0.62900
F1115       F  0.51775450  0.78145834  0.26169812    -0.22300
F1116       F  0.57263515  0.35068489  0.22477674    -0.19600
F1117       F  0.48244292  0.83010802  0.23404862    -0.19300
F1118       F  0.69892314  0.03693728  0.35612967    -0.19400
F1119       F  0.61348266  0.00896283  0.38003743    -0.19700
F1120       F  0.14659605  0.07721846  0.33986812    -0.22400
C1121       C  0.90218150  0.55612116  0.69415654    -0.05200
C1122       C  0.95826188  0.56622075  0.69148827     0.00700
C1123       C  0.98906971  0.59310310  0.66208775    -0.07800
C1124       C  0.95976336  0.59412347  0.63378574    -0.05200
C1125       C  0.90343244  0.58235764  0.63544100     0.00700
C1126       C  0.87454008  0.56579532  0.66670283    -0.07800
C1127       C  0.81564839  0.55886530  0.67143232     0.62600
H1128       H  0.87946776  0.53873982  0.71724549     0.13300
H1129       H  0.98344525  0.61040432  0.61075763     0.13300
C1130       C  0.55351260  0.62830993  0.66034224     0.62900
F1131       F  0.79854580  0.54795854  0.70440206    -0.22300
F1132       F  0.77555258  0.51174849  0.65229168    -0.19600
F1133       F  0.81649369  0.61046750  0.66207262    -0.19300
F1134       F  0.57270845  0.59682920  0.64203284    -0.19400
F1135       F  0.57794019  0.64156284  0.69169143    -0.19700
F1136       F  0.57079626  0.68209119  0.64473206    -0.22400
C1137       C  0.65100023  0.54346793  0.64165019    -0.05200
C1138       C  0.68812771  0.60482727  0.63893898     0.00700
C1139       C  0.69778049  0.64160161  0.66760064    -0.07800
C1140       C  0.66338773  0.61600689  0.69589034    -0.05200
C1141       C  0.62138060  0.55560442  0.69636911     0.00700
C1142       C  0.62126894  0.51829590  0.67076235    -0.07800
C1143       C  0.59331082  0.95221371  0.67347165     0.62600
H1144       H  0.64645189  0.51382607  0.62125719     0.13300
H1145       H  0.66579819  0.64405820  0.71656297     0.13300
C1146       C  0.74341708  0.70693677  0.66885259     0.62900
F1147       F  0.63199202  0.43401673  0.66476062    -0.22300
F1148       F  0.04681630  0.42566238  0.65211839    -0.19600
F1149       F  0.57713878  0.93414767  0.70569597    -0.19300
F1150       F  0.73021962  0.73839416  0.64617586    -0.19400
F1151       F  0.79617272  0.71316638  0.66153594    -0.19700
F1152       F  0.74781653  0.73169097  0.70016134    -0.22400
C1153       C  0.88651157  0.85187525  0.65251709    -0.05200
C1154       C  0.91522405  0.82089847  0.64483426     0.00700
C1155       C  0.94926268  0.81519873  0.67060563    -0.07800
C1156       C  0.96042404  0.84934525  0.70024437    -0.05200
C1157       C  0.93998796  0.88896132  0.70424369     0.00700
C1158       C  0.89636046  0.88344772  0.68237258    -0.07800
C1159       C  0.85690840  0.90730075  0.68992784     0.62600
H1160       H  0.85512758  0.85125974  0.63520705     0.13300
H1161       H  0.48878915  0.84887912  0.71930468     0.13300
C1162       C  0.97543737  0.77552502  0.66706480     0.62900
F1163       F  0.86083208  0.94521239  0.66473949    -0.22300
F1164       F  0.86894267  0.93630788  0.72035806    -0.19600
F1165       F  0.80107606  0.86047523  0.69077743    -0.19300
F1166       F  0.01336942  0.79444538  0.64076687    -0.19400
F1167       F  0.93255679  0.71732707  0.66168385    -0.19700
F1168       F  0.50556289  0.77670267  0.69545025    -0.22400
C1169       C  0.93936268  0.63426653  0.80898900    -0.05200
C1170       C  0.91126115  0.59050818  0.83332636     0.00700
C1171       C  0.89605714  0.53125434  0.82597644    -0.07800
C1172       C  0.91301155  0.51912108  0.79528874    -0.05200
C1173       C  0.94839039  0.56413243  0.77284789     0.00700
C1174       C  0.95864972  0.62277042  0.77889468    -0.07800
C1175       C  0.98874163  0.67572538  0.75595716     0.62600
H1176       H  0.94737605  0.67892432  0.81377728     0.13300
H1177       H  0.90224624  0.47412534  0.78968662     0.13300
C1178       C  0.86509469  0.48149169  0.85096267     0.62900
F1179       F  0.03380975  0.72248054  0.77288049    -0.22300
F1180       F  0.95015506  0.69332274  0.74628880    -0.19600
F1181       F  0.51014296  0.66449475  0.72776903    -0.19300
F1182       F  0.80882735  0.46816213  0.85400242    -0.19400
F1183       F  0.89248349  0.49821391  0.88173266    -0.19700
F1184       F  0.86445332  0.43030361  0.84119893    -0.22400
C1185       C  0.65953420  0.62528527  0.82694018    -0.05200
C1186       C  0.69056698  0.59599405  0.83196216     0.00700
C1187       C  0.69647062  0.56387334  0.80476084    -0.07800
C1188       C  0.66372527  0.55532473  0.77550351    -0.05200
C1189       C  0.62626881  0.57773890  0.77315791     0.00700
C1190       C  0.63071653  0.61971947  0.79709248    -0.07800
C1191       C  0.60813595  0.66148719  0.79153810     0.62600
H1192       H  0.65897563  0.65450547  0.84614148     0.13300
H1193       H  0.66338746  0.52684690  0.75564417     0.13300
C1194       C  0.73514303  0.53709482  0.80654327     0.62900
F1195       F  0.65116745  0.71927852  0.79802105    -0.22300
F1196       F  0.56326321  0.64733471  0.81296823    -0.19600
F1197       F  0.59065196  0.65916604  0.75895329    -0.19300
F1198       F  0.71447626  0.49217426  0.82990400    -0.19400
F1199       F  0.79020269  0.58061418  0.81520745    -0.19700
F1200       F  0.73780524  0.51293656  0.77621109    -0.22400
C1201       C  0.97076160  0.86899650  0.83588185    -0.05200
C1202       C  0.91165687  0.83569898  0.84054373     0.00700
C1203       C  0.87427951  0.83370562  0.81450008    -0.07800
C1204       C  0.89854184  0.86941464  0.78605053    -0.05200
C1205       C  0.95805739  0.90370169  0.78215432     0.00700
C1206       C  0.99407250  0.89885066  0.80625283    -0.07800
C1207       C  0.55684443  0.92102472  0.80157513     0.62600
H1208       H  0.99952802  0.86863779  0.85485352     0.13300
H1209       H  0.87119507  0.87217124  0.76713961     0.13300
C1210       C  0.80953614  0.79410238  0.81612571     0.62900
F1211       F  0.56867944  0.87623867  0.80895738    -0.22300
F1212       F  0.58773729  0.96808656  0.82319698    -0.19600
F1213       F  0.57328874  0.93759725  0.76921717    -0.19300
F1214       F  0.78820084  0.81035985  0.84293021    -0.19400
F1215       F  0.79575495  0.73549647  0.81939361    -0.19700
F1216       F  0.78253421  0.79817081  0.78755392    -0.22400
loop_ 
_geom_bond_atom_site_label_1 
_geom_bond_atom_site_label_2 
_geom_bond_distance 
_geom_bond_site_symmetry_2 
_ccdc_geom_bond_type 
Zn1           O5   1.977       .  S
Zn1           O6   1.983       .  S
Zn1          O10   1.993       .  S
Zn1          O17   2.020       .  S
Zn2           O5   1.960       .  S
Zn2           O7   1.983       .  S
Zn2           O9   1.987       .  S
Zn2          O13   2.026       .  S
Zn3           O5   1.964       .  S
Zn3           O8   1.962       .  S
Zn3          O11   1.987       .  S
Zn3          O14   2.001       .  S
Zn4           O5   1.953       .  S
Zn4          O12   2.141       .  S
Zn4          O15   2.138       .  S
Zn4          O16   2.125       .  S
O6           C18   1.267       .  A
O7           C19   1.271       .  A
O8           C20   1.268       .  A
O9           C18   1.268       .  A
O10          C20   1.266       .  A
O11          C19   1.264       .  A
O12          C21   1.292       .  A
O13          C22   1.274       .  A
O14          C21   1.271       .  A
O15          C22   1.293       .  A
O16          C23   1.291       .  A
O17          C23   1.273       .  A
C18         C258   1.481       .  S
C19         C290   1.481       .  S
C20         C274   1.478       .  S
C21          C98   1.497       .  S
C22         C709   1.501       .  S
C23         C401   1.496   1_545  S
Zn24         O28   1.941       .  S
Zn24         O29   2.144       .  S
Zn24         O33   2.128       .  S
Zn24         O40   2.122       .  S
Zn25         O28   1.945       .  S
Zn25         O30   2.005       .  S
Zn25         O32   2.040       .  S
Zn25         O36   1.980       .  S
Zn26         O28   1.960       .  S
Zn26         O31   2.036       .  S
Zn26         O34   2.001       .  S
Zn26         O37   1.994       .  S
Zn27         O28   1.957       .  S
Zn27         O35   1.954       .  S
Zn27         O38   1.992       .  S
Zn27         O39   1.998       .  S
O29          C41   1.293       .  A
O30          C42   1.267       .  A
O31          C43   1.276       .  A
O32          C41   1.276       .  A
O33          C43   1.291       .  A
O34          C42   1.275       .  A
O35          C44   1.268       .  A
O36          C45   1.273       .  A
O37          C44   1.265       .  A
O38          C45   1.264       .  A
O39          C46   1.270       .  A
O40          C46   1.290       .  A
C41         C686   1.507       .  S
C42         C242   1.498       .  S
C43          C74   1.501       .  S
C44         C226   1.481       .  S
C45         C213   1.480       .  S
C46         C379   1.490   1_545  S
C47          H48   1.112       .  S
C47          C52   1.533       .  S
C47         C965   1.545   1_445  S
C47         C659   1.550   1_455  S
C49         H354   1.111   1_545  S
C49          C55   1.549       .  S
C49         C662   1.549   1_455  S
C49         C968   1.542   1_445  S
H50         C353   1.111       .  S
C51         C655   1.550       .  S
C51          C54   1.384       .  D
C51         C261   1.501       .  S
C52          C55   1.367       .  D
C52         C277   1.486       .  S
C53         C959   1.545       .  S
C53          C56   1.370       .  D
C53         C293   1.490       .  S
C54         C657   1.549       .  S
C54         C210   1.496       .  S
C55         C229   1.491       .  S
C56         C961   1.542       .  S
C56         C245   1.493       .  S
Zn57         O61   1.964       .  S
Zn57         O62   2.028       .  S
Zn57         O66   1.985       .  S
Zn57         O73   2.010       .  S
Zn58         O61   1.960       .  S
Zn58         O63   2.124       .  S
Zn58         O65   2.134       .  S
Zn58         O69   2.146       .  S
Zn59         O61   1.977       .  S
Zn59         O64   1.977       .  S
Zn59         O67   1.991       .  S
Zn59         O70   1.963       .  S
Zn60         O61   1.972       .  S
Zn60         O68   2.000       .  S
Zn60         O71   2.037       .  S
Zn60         O72   2.001       .  S
O62          C74   1.275       .  A
O63          C75   1.290       .  A
O64          C76   1.263       .  A
O65          C74   1.291       .  A
O66          C76   1.270       .  A
O67          C75   1.269       .  A
O68          C77   1.270       .  A
O69          C78   1.293       .  A
O70          C77   1.264       .  A
O71          C78   1.276       .  A
O72          C79   1.269       .  A
O73          C79   1.271       .  A
C75         C350   1.490       .  S
C76         C162   1.471       .  S
C77         C194   1.474       .  S
C78         C649   1.507   1_455  S
C79         C178   1.488       .  S
Zn80         O84   1.975       .  S
Zn80         O85   2.004       .  S
Zn80         O89   1.971       .  S
Zn80         O96   1.978       .  S
Zn81         O84   1.956   1_556  S
Zn81         O86   2.125       .  S
Zn81         O88   2.135       .  S
Zn81         O92   2.144       .  S
Zn82         O84   1.973       .  S
Zn82         O87   2.003       .  S
Zn82         O90   2.028       .  S
Zn82         O93   1.999       .  S
Zn83         O84   1.963       .  S
Zn83         O91   2.000       .  S
Zn83         O94   2.015       .  S
Zn83         O95   1.966       .  S
O85          C97   1.270   1_554  A
O86          C98   1.292       .  A
O87          C99   1.270       .  A
O88          C97   1.290       .  A
O89          C99   1.265       .  A
O90          C98   1.275   1_554  A
O91         C100   1.269       .  A
O92         C101   1.293       .  A
O93         C100   1.269       .  A
O94         C101   1.272   1_554  A
O95         C102   1.269       .  A
O96         C102   1.265       .  A
C97         C327   1.496       .  S
C99         C130   1.478       .  S
C100        C117   1.487       .  S
C101        C630   1.501   1_455  S
C102        C149   1.466       .  S
C103        H104   1.111   1_655  S
C103        C109   1.536   1_665  S
C103       C1020   1.533       .  S
C103        C411   1.541   1_655  S
C105        H106   1.111       .  S
C105        C112   1.535   1_665  S
C105       C1023   1.541       .  S
C105        C414   1.531   1_655  S
C107        C407   1.541   1_455  S
C107        C110   1.375       .  D
C107        C197   1.493       .  S
C108       C1015   1.533       .  S
C108        C111   1.375       .  D
C108        C165   1.479       .  S
C109        C112   1.372       .  D
C109        C181   1.485       .  S
C110        C409   1.531   1_455  S
C110        C146   1.481       .  S
C111       C1017   1.541       .  S
C111        C133   1.497       .  S
C112        C114   1.480       .  S
C113        C114   1.404       .  A
C113        C118   1.400       .  A
C113        H120   1.081       .  S
C114        C115   1.413       .  A
C115        C116   1.411       .  A
C115        C730   1.520   1_455  S
C116        C117   1.413       .  A
C116        H121   1.083       .  S
C117        C118   1.417       .  A
C118        C119   1.522       .  S
C119        F123   1.383       .  S
C119        F124   1.383       .  S
C119        F125   1.384       .  S
C122        C723   1.520       .  S
C122        F126   1.381       .  S
C122        F127   1.385       .  S
C122        F128   1.380       .  S
C129        C130   1.408       .  A
C129        C134   1.410       .  A
C129        H136   1.083       .  S
C130        C131   1.413       .  A
C131        C132   1.397       .  A
C131        C138   1.523       .  S
C132        C133   1.407       .  A
C132        H441   1.075       .  S
C133        C134   1.420       .  A
C134        C135   1.521       .  S
C135        F139   1.380       .  S
C135        F140   1.375       .  S
C135        F141   1.384       .  S
H137        C436   1.075   1_545  S
C138        F143   1.384       .  S
C138        F446   1.382       .  S
C138        F448   1.384       .  S
F142        C442   1.382       .  S
F144        C442   1.384       .  S
C145        C146   1.402       .  A
C145        C150   1.408       .  A
C145        H456   1.083       .  S
C146        C147   1.422       .  A
C147        C148   1.388       .  A
C147        C762   1.512   1_455  S
C148        C149   1.391       .  A
C148        H153   1.086       .  S
C149        C150   1.422       .  A
C150        C151   1.518       .  S
C151        F156   1.382       .  S
C151        F157   1.383       .  S
C151        F459   1.385       .  S
H152        C449   1.083       .  S
C154        C755   1.512       .  S
C154        F158   1.381       .  S
C154        F159   1.370       .  S
C154        F160   1.385       .  S
F155        C455   1.385       .  S
C161        C162   1.392       .  A
C161        C166   1.389       .  A
C161        H168   1.086       .  S
C162        C163   1.424       .  A
C163        C164   1.408       .  A
C163        C170   1.518       .  S
C164        C165   1.401       .  A
C164        H169   1.083       .  S
C165        C166   1.422       .  A
C166        C167   1.512       .  S
C167        F171   1.385       .  S
C167        F173   1.369       .  S
C167       F1084   1.382       .  S
C170        F174   1.382       .  S
C170        F175   1.383       .  S
C170        F176   1.385       .  S
F172       C1079   1.382       .  S
C177        C178   1.412       .  A
C177        C182   1.411       .  A
C177        H184   1.083       .  S
C178        C179   1.418       .  A
C179        C180   1.402       .  A
C179        C186   1.521   1_455  S
C180        C181   1.404       .  A
C180        H793   1.081   1_455  S
C181        C182   1.415       .  A
C182        C183   1.520       .  S
C183        F187   1.381       .  S
C183        F188   1.381       .  S
C183        F189   1.385       .  S
H185        C788   1.081       .  S
C186        F190   1.383       .  S
C186        F191   1.383       .  S
C186        F800   1.384       .  S
F192        C794   1.384       .  S
C193        C194   1.407       .  A
C193        C198   1.408       .  A
C193        H200   1.083       .  S
C194        C195   1.412       .  A
C195        C196   1.398       .  A
C195        C202   1.523       .  S
C196        C197   1.407       .  A
C196        H201   1.076       .  S
C197        C198   1.418       .  A
C198        C199   1.520       .  S
C199        F203   1.384       .  S
C199        F205   1.375   1_455  S
C199        F508   1.381       .  S
C202        F206   1.382       .  S
C202        F207   1.384       .  S
C202        F816   1.384       .  S
F204        C503   1.381       .  S
F208        C810   1.384       .  S
C209        C210   1.404       .  A
C209        C214   1.416       .  A
C209        H216   1.081       .  S
C210        C211   1.415       .  A
C211        C212   1.385       .  A
C211        C826   1.506       .  S
C212        C213   1.393       .  A
C212        H217   1.085       .  S
C213        C214   1.429       .  A
C214        C215   1.519       .  S
C215        F219   1.385       .  S
C215        F220   1.383       .  S
C215        F221   1.383       .  S
C218        C819   1.506   1_455  S
C218        F222   1.379       .  S
C218        F223   1.374       .  S
C218        F224   1.385       .  S
C225        C226   1.400       .  A
C225        C230   1.387       .  A
C225        H232   1.084       .  S
C226        C227   1.428       .  A
C227        C228   1.410       .  A
C227        C234   1.518       .  S
C228        C229   1.402       .  A
C228        H233   1.082       .  S
C229        C230   1.408       .  A
C230        C535   1.500   1_545  S
C231        C534   1.500       .  S
C231        F237   1.373       .  S
C231        F539   1.385       .  S
C231       F1148   1.380       .  S
C234        F238   1.383       .  S
C234        F239   1.382       .  S
C234        F240   1.385       .  S
F235        C535   1.385       .  S
F236       C1143   1.380       .  S
C241        C242   1.403       .  A
C241        C246   1.395       .  A
C241        H248   1.084       .  S
C242        C243   1.433       .  A
C243        C244   1.417       .  A
C243        C250   1.520       .  S
C244        C245   1.399       .  A
C244        H857   1.081       .  S
C245        C246   1.410       .  A
C246        C247   1.507       .  S
C247        F251   1.380       .  S
C247        F252   1.380       .  S
C247        F253   1.383       .  S
H249        C852   1.081       .  S
C250        F254   1.383       .  S
C250        F255   1.383       .  S
C250        F864   1.384       .  S
F256        C858   1.384   1_455  S
C257        C258   1.404       .  A
C257        C262   1.406       .  A
C257        H264   1.085       .  S
C258        C259   1.410       .  A
C259        C260   1.404       .  A
C259        C266   1.520   1_545  S
C260        C261   1.410       .  A
C260        H265   1.077   1_545  S
C261        C262   1.426       .  A
C262        C263   1.515       .  S
C263        F267   1.384       .  S
C263        F268   1.383       .  S
C263        F877   1.367       .  S
C266        F270   1.383       .  S
C266        F271   1.384       .  S
C266        F272   1.377       .  S
F269        C871   1.367   1_455  S
C273        C274   1.399       .  A
C273        C278   1.388       .  A
C273        H280   1.085       .  S
C274        C275   1.428       .  A
C275        C276   1.411       .  A
C275        C282   1.518       .  S
C276        C277   1.399       .  A
C276        H281   1.082       .  S
C277        C278   1.409       .  A
C278        C279   1.504       .  S
C279        F283   1.384       .  S
C279        F284   1.381       .  S
C279        F285   1.376       .  S
C282        F286   1.383   1_545  S
C282        F287   1.382       .  S
C282        F288   1.385       .  S
C289        C290   1.395       .  A
C289        C294   1.391       .  A
C289        H296   1.085       .  S
C290        C291   1.428       .  A
C291        C292   1.413       .  A
C291        C298   1.520       .  S
C292        C293   1.401       .  A
C292        H297   1.081       .  S
C293        C294   1.415       .  A
C294        C903   1.503       .  S
C295        C902   1.503   1_455  S
C295        F299   1.385       .  S
C295        F300   1.379       .  S
C295        F301   1.372       .  S
C298        F302   1.383       .  S
C298        F303   1.382       .  S
C298        F304   1.385       .  S
Zn305       O309   1.977       .  S
Zn305       O310   1.983       .  S
Zn305       O314   1.993       .  S
Zn305       O321   2.020       .  S
Zn306       O309   1.960       .  S
Zn306       O311   1.984       .  S
Zn306       O313   1.987       .  S
Zn306       O317   2.026       .  S
Zn307       O309   1.964       .  S
Zn307       O312   1.962       .  S
Zn307       O315   1.987       .  S
Zn307       O318   2.002       .  S
Zn308       O309   1.953       .  S
Zn308       O316   2.141       .  S
Zn308       O319   2.138       .  S
Zn308       O320   2.125       .  S
O310        C322   1.267       .  A
O311        C323   1.271       .  A
O312        C324   1.268       .  A
O313        C322   1.268       .  A
O314        C324   1.266       .  A
O315        C323   1.264       .  A
O316        C325   1.292       .  A
O317        C326   1.274       .  A
O318        C325   1.271       .  A
O319        C326   1.293       .  A
O320        C327   1.291       .  A
O321        C327   1.273       .  A
C322        C562   1.481       .  S
C323        C594   1.482       .  S
C324        C578   1.478       .  S
C325        C402   1.497       .  S
C326       C1013   1.501       .  S
Zn328       O332   1.942       .  S
Zn328       O333   2.144       .  S
Zn328       O337   2.128       .  S
Zn328       O344   2.123       .  S
Zn329       O332   1.945       .  S
Zn329       O334   2.005       .  S
Zn329       O336   2.039       .  S
Zn329       O340   1.980       .  S
Zn330       O332   1.961       .  S
Zn330       O335   2.036       .  S
Zn330       O338   2.001       .  S
Zn330       O341   1.994       .  S
Zn331       O332   1.957       .  S
Zn331       O339   1.954       .  S
Zn331       O342   1.992       .  S
Zn331       O343   1.998       .  S
O333        C345   1.293       .  A
O334        C346   1.267       .  A
O335        C347   1.276       .  A
O336        C345   1.276       .  A
O337        C347   1.291       .  A
O338        C346   1.275       .  A
O339        C348   1.268       .  A
O340        C349   1.272       .  A
O341        C348   1.265       .  A
O342        C349   1.264       .  A
O343        C350   1.270       .  A
O344        C350   1.290       .  A
C345        C990   1.507       .  S
C346        C546   1.498       .  S
C347        C378   1.501       .  S
C348        C530   1.481       .  S
C349        C517   1.479       .  S
C351        H352   1.112       .  S
C351        C661   1.545   1_455  S
C351        C356   1.533       .  S
C351        C963   1.550   1_455  S
C353        C359   1.549       .  S
C353        C966   1.549   1_455  S
C353        C664   1.542   1_455  S
C355        C959   1.550       .  S
C355        C358   1.384       .  D
C355        C565   1.501       .  S
C356        C359   1.367       .  D
C356        C581   1.486       .  S
C357        C655   1.545   1_565  S
C357        C360   1.370       .  D
C357        C597   1.490       .  S
C358        C961   1.549       .  S
C358        C514   1.496       .  S
C359        C533   1.491       .  S
C360        C657   1.542   1_565  S
C360        C549   1.493       .  S
Zn361       O365   1.964       .  S
Zn361       O366   2.028       .  S
Zn361       O370   1.985       .  S
Zn361       O377   2.010       .  S
Zn362       O365   1.960       .  S
Zn362       O367   2.124       .  S
Zn362       O369   2.134       .  S
Zn362       O373   2.147       .  S
Zn363       O365   1.977       .  S
Zn363       O368   1.977       .  S
Zn363       O371   1.991       .  S
Zn363       O374   1.963       .  S
Zn364       O365   1.972       .  S
Zn364       O372   2.000       .  S
Zn364       O375   2.037       .  S
Zn364       O376   2.001       .  S
O366        C378   1.275       .  A
O367        C379   1.290       .  A
O368        C380   1.263       .  A
O369        C378   1.291       .  A
O370        C380   1.270       .  A
O371        C379   1.269       .  A
O372        C381   1.270       .  A
O373        C382   1.293       .  A
O374        C381   1.264       .  A
O375        C382   1.276       .  A
O376        C383   1.269       .  A
O377        C383   1.271       .  A
C380        C466   1.471       .  S
C381        C498   1.474       .  S
C382        C953   1.507   1_455  S
C383        C482   1.488       .  S
Zn384       O388   1.974       .  S
Zn384       O389   2.004       .  S
Zn384       O393   1.971       .  S
Zn384       O400   1.978       .  S
Zn385       O388   1.956   1_556  S
Zn385       O390   2.125       .  S
Zn385       O392   2.134       .  S
Zn385       O396   2.143       .  S
Zn386       O388   1.973       .  S
Zn386       O391   2.003       .  S
Zn386       O394   2.028       .  S
Zn386       O397   1.999       .  S
Zn387       O388   1.962       .  S
Zn387       O395   2.000       .  S
Zn387       O398   2.015       .  S
Zn387       O399   1.966       .  S
O389        C401   1.270   1_554  A
O390        C402   1.292       .  A
O391        C403   1.270       .  A
O392        C401   1.290       .  A
O393        C403   1.265       .  A
O394        C402   1.275   1_554  A
O395        C404   1.269       .  A
O396        C405   1.293       .  A
O397        C404   1.269       .  A
O398        C405   1.272   1_554  A
O399        C406   1.269       .  A
O400        C406   1.265       .  A
C403        C434   1.478       .  S
C404        C421   1.487       .  S
C405        C934   1.501   1_455  S
C406        C453   1.466       .  S
C407        H408   1.111   1_655  S
C407        C413   1.536   1_655  S
C407        C716   1.533       .  S
C409        H410   1.111       .  S
C409        C719   1.541       .  S
C409        C416   1.535   1_655  S
C411        C414   1.375       .  D
C411        C501   1.493       .  S
C412        C711   1.533       .  S
C412        C415   1.375       .  D
C412        C469   1.479       .  S
C413        C416   1.372       .  D
C413        C485   1.485       .  S
C414        C450   1.481       .  S
C415        C713   1.541       .  S
C415        C437   1.497       .  S
C416        C418   1.480       .  S
C417        C418   1.404       .  A
C417        C422   1.400       .  A
C417        H424   1.081       .  S
C418        C419   1.413       .  A
C419        C420   1.411       .  A
C419       C1034   1.520   1_455  S
C420        C421   1.413       .  A
C420        H425   1.083       .  S
C421        C422   1.417       .  A
C422        C423   1.522       .  S
C423        F427   1.383       .  S
C423        F428   1.383       .  S
C423        F429   1.384       .  S
C426       C1027   1.520       .  S
C426        F430   1.381       .  S
C426        F431   1.385       .  S
C426        F432   1.380       .  S
C433        C434   1.408       .  A
C433        C438   1.410       .  A
C433        H440   1.083       .  S
C434        C435   1.413       .  A
C435        C436   1.397       .  A
C435        C442   1.523   1_565  S
C436        C437   1.407       .  A
C437        C438   1.420       .  A
C438        C439   1.521       .  S
C439        F443   1.380       .  S
C439        F444   1.375       .  S
C439        F445   1.384       .  S
C442        F447   1.384   1_545  S
C449        C450   1.402       .  A
C449        C454   1.408       .  A
C450        C451   1.422       .  A
C451        C452   1.388       .  A
C451       C1066   1.512   1_455  S
C452        C453   1.391       .  A
C452        H457   1.086       .  S
C453        C454   1.422       .  A
C454        C455   1.518       .  S
C455        F460   1.382   1_565  S
C455        F461   1.383       .  S
C458       C1059   1.512       .  S
C458        F462   1.381       .  S
C458        F463   1.370       .  S
C458        F464   1.385       .  S
C465        C466   1.392       .  A
C465        C470   1.389       .  A
C465        H472   1.086       .  S
C466        C467   1.424       .  A
C467        C468   1.408       .  A
C467        C474   1.518       .  S
C468        C469   1.401       .  A
C468        H473   1.083       .  S
C469        C470   1.422       .  A
C470        C471   1.512       .  S
C471        F475   1.385       .  S
C471        F780   1.382       .  S
C471        F477   1.369       .  S
C474        F478   1.382   1_565  S
C474        F479   1.383       .  S
C474        F480   1.385   1_565  S
F476        C775   1.382       .  S
C481        C482   1.412       .  A
C481        C486   1.411       .  A
C481        H488   1.083       .  S
C482        C483   1.418       .  A
C483        C484   1.402       .  A
C483        C490   1.521   1_455  S
C484        C485   1.404       .  A
C484       H1097   1.081   1_455  S
C485        C486   1.415       .  A
C486        C487   1.520       .  S
C487        F491   1.381       .  S
C487        F492   1.381       .  S
C487        F493   1.385       .  S
H489       C1092   1.081       .  S
C490        F494   1.383       .  S
C490        F495   1.383       .  S
C490       F1104   1.384       .  S
F496       C1098   1.384       .  S
C497        C498   1.407       .  A
C497        C502   1.408       .  A
C497        H504   1.083       .  S
C498        C499   1.412       .  A
C499        C500   1.398       .  A
C499        C506   1.523   1_565  S
C500        C501   1.407       .  A
C500        H505   1.076   1_565  S
C501        C502   1.418       .  A
C502        C503   1.520       .  S
C503        F507   1.384       .  S
C503        F509   1.375   1_455  S
C506        F510   1.382       .  S
C506        F511   1.384       .  S
C506       F1120   1.384       .  S
F512       C1114   1.384       .  S
C513        C514   1.404       .  A
C513        C518   1.416       .  A
C513        H520   1.081       .  S
C514        C515   1.415       .  A
C515        C516   1.385       .  A
C515       C1130   1.506       .  S
C516        C517   1.393       .  A
C516        H521   1.085       .  S
C517        C518   1.429       .  A
C518        C519   1.519       .  S
C519        F523   1.385       .  S
C519        F524   1.383       .  S
C519        F525   1.383       .  S
C522       C1123   1.506   1_455  S
C522        F526   1.379       .  S
C522        F527   1.374       .  S
C522        F528   1.385       .  S
C529        C530   1.400       .  A
C529        C534   1.387       .  A
C529        H536   1.084       .  S
C530        C531   1.428       .  A
C531        C532   1.410       .  A
C531        C538   1.518       .  S
C532        C533   1.402       .  A
C532        H537   1.082       .  S
C533        C534   1.408       .  A
C535        F844   1.380       .  S
C535        F541   1.373       .  S
C538        F542   1.383       .  S
C538        F543   1.382       .  S
C538        F544   1.385       .  S
F540        C839   1.380       .  S
C545        C546   1.403       .  A
C545        C550   1.395       .  A
C545        H552   1.084       .  S
C546        C547   1.433       .  A
C547        C548   1.417       .  A
C547        C554   1.520       .  S
C548        C549   1.399       .  A
C548       H1161   1.081       .  S
C549        C550   1.410       .  A
C550        C551   1.507       .  S
C551        F555   1.380       .  S
C551        F556   1.380       .  S
C551        F557   1.383       .  S
H553       C1156   1.081       .  S
C554        F558   1.383       .  S
C554        F559   1.383       .  S
C554       F1168   1.384       .  S
F560       C1162   1.384   1_455  S
C561        C562   1.404       .  A
C561        C566   1.406       .  A
C561        H568   1.085       .  S
C562        C563   1.410       .  A
C563        C564   1.404       .  A
C563        C570   1.520       .  S
C564        C565   1.410       .  A
C564        H569   1.077       .  S
C565        C566   1.426       .  A
C566        C567   1.515       .  S
C567        F571   1.384       .  S
C567        F572   1.383       .  S
C567       F1181   1.367       .  S
C570        F574   1.383       .  S
C570        F575   1.384       .  S
C570        F576   1.377       .  S
F573       C1175   1.367   1_455  S
C577        C578   1.399       .  A
C577        C582   1.388       .  A
C577        H584   1.085       .  S
C578        C579   1.428       .  A
C579        C580   1.410       .  A
C579        C586   1.518       .  S
C580        C581   1.399       .  A
C580        H585   1.082       .  S
C581        C582   1.409       .  A
C582        C583   1.504       .  S
C583        F587   1.384       .  S
C583        F588   1.381       .  S
C583        F589   1.376       .  S
C586        F590   1.383       .  S
C586        F591   1.382       .  S
C586        F592   1.385       .  S
C593        C594   1.395       .  A
C593        C598   1.391       .  A
C593        H600   1.085       .  S
C594        C595   1.428       .  A
C595        C596   1.413       .  A
C595        C602   1.520       .  S
C596        C597   1.401       .  A
C596        H601   1.081       .  S
C597        C598   1.414       .  A
C598       C1207   1.503       .  S
C599       C1206   1.503   1_455  S
C599        F603   1.385       .  S
C599        F604   1.379       .  S
C599        F605   1.372       .  S
C602        F606   1.383       .  S
C602        F607   1.382       .  S
C602        F608   1.385       .  S
Zn609       O613   1.977       .  S
Zn609       O614   1.983       .  S
Zn609       O618   1.993       .  S
Zn609       O625   2.020       .  S
Zn610       O613   1.960       .  S
Zn610       O615   1.983       .  S
Zn610       O617   1.987       .  S
Zn610       O621   2.026       .  S
Zn611       O613   1.964       .  S
Zn611       O616   1.962       .  S
Zn611       O619   1.987       .  S
Zn611       O622   2.001       .  S
Zn612       O613   1.953       .  S
Zn612       O620   2.141       .  S
Zn612       O623   2.138       .  S
Zn612       O624   2.125       .  S
O614        C626   1.267       .  A
O615        C627   1.271       .  A
O616        C628   1.268       .  A
O617        C626   1.268       .  A
O618        C628   1.266       .  A
O619        C627   1.264       .  A
O620        C629   1.292       .  A
O621        C630   1.274       .  A
O622        C629   1.271       .  A
O623        C630   1.293       .  A
O624        C631   1.291       .  A
O625        C631   1.273       .  A
C626        C866   1.481       .  S
C627        C898   1.481       .  S
C628        C882   1.478       .  S
C629        C706   1.497       .  S
C631       C1009   1.496   1_545  S
Zn632       O636   1.941       .  S
Zn632       O637   2.144       .  S
Zn632       O641   2.128       .  S
Zn632       O648   2.122       .  S
Zn633       O636   1.945       .  S
Zn633       O638   2.005       .  S
Zn633       O640   2.040       .  S
Zn633       O644   1.980       .  S
Zn634       O636   1.960       .  S
Zn634       O639   2.036       .  S
Zn634       O642   2.001       .  S
Zn634       O645   1.994       .  S
Zn635       O636   1.957       .  S
Zn635       O643   1.954       .  S
Zn635       O646   1.992       .  S
Zn635       O647   1.998       .  S
O637        C649   1.293       .  A
O638        C650   1.267       .  A
O639        C651   1.276       .  A
O640        C649   1.276       .  A
O641        C651   1.291       .  A
O642        C650   1.275       .  A
O643        C652   1.268       .  A
O644        C653   1.273       .  A
O645        C652   1.265       .  A
O646        C653   1.264       .  A
O647        C654   1.270       .  A
O648        C654   1.290       .  A
C650        C850   1.498       .  S
C651        C682   1.501       .  S
C652        C834   1.481       .  S
C653        C821   1.480       .  S
C654        C987   1.490   1_545  S
C655        H656   1.112       .  S
C655        C660   1.533       .  S
C657        H962   1.111   1_545  S
C657        C663   1.549       .  S
H658        C961   1.111       .  S
C659        C662   1.384       .  D
C659        C869   1.501       .  S
C660        C663   1.367       .  D
C660        C885   1.486       .  S
C661        C664   1.370       .  D
C661        C901   1.490       .  S
C662        C818   1.496       .  S
C663        C837   1.491       .  S
C664        C853   1.493       .  S
Zn665       O669   1.964       .  S
Zn665       O670   2.028       .  S
Zn665       O674   1.985       .  S
Zn665       O681   2.010       .  S
Zn666       O669   1.960       .  S
Zn666       O671   2.124       .  S
Zn666       O673   2.134       .  S
Zn666       O677   2.146       .  S
Zn667       O669   1.977       .  S
Zn667       O672   1.977       .  S
Zn667       O675   1.991       .  S
Zn667       O678   1.963       .  S
Zn668       O669   1.972       .  S
Zn668       O676   2.000       .  S
Zn668       O679   2.037       .  S
Zn668       O680   2.001       .  S
O670        C682   1.275       .  A
O671        C683   1.290       .  A
O672        C684   1.263       .  A
O673        C682   1.291       .  A
O674        C684   1.270       .  A
O675        C683   1.269       .  A
O676        C685   1.270       .  A
O677        C686   1.293       .  A
O678        C685   1.264       .  A
O679        C686   1.276       .  A
O680        C687   1.269       .  A
O681        C687   1.271       .  A
C683        C958   1.490       .  S
C684        C770   1.471       .  S
C685        C802   1.474       .  S
C687        C786   1.488       .  S
Zn688       O692   1.975       .  S
Zn688       O693   2.004       .  S
Zn688       O697   1.971       .  S
Zn688       O704   1.978       .  S
Zn689       O692   1.956   1_556  S
Zn689       O694   2.125       .  S
Zn689       O696   2.135       .  S
Zn689       O700   2.144       .  S
Zn690       O692   1.973       .  S
Zn690       O695   2.003       .  S
Zn690       O698   2.028       .  S
Zn690       O701   1.999       .  S
Zn691       O692   1.962       .  S
Zn691       O699   2.000       .  S
Zn691       O702   2.015       .  S
Zn691       O703   1.966       .  S
O693        C705   1.270   1_554  A
O694        C706   1.292       .  A
O695        C707   1.270       .  A
O696        C705   1.290       .  A
O697        C707   1.265       .  A
O698        C706   1.275   1_554  A
O699        C708   1.269       .  A
O700        C709   1.293       .  A
O701        C708   1.269       .  A
O702        C709   1.272   1_554  A
O703        C710   1.269       .  A
O704        C710   1.265       .  A
C705        C935   1.496       .  S
C707        C738   1.478       .  S
C708        C725   1.487       .  S
C710        C757   1.466       .  S
C711        H712   1.111       .  S
C711        C717   1.536   1_565  S
C711       C1019   1.541       .  S
C713        H714   1.111       .  S
C713       C1022   1.531       .  S
C713        C720   1.535   1_565  S
C715       C1015   1.541       .  S
C715        C718   1.375       .  D
C715        C805   1.493       .  S
C716        C719   1.375       .  D
C716        C773   1.479       .  S
C717        C720   1.372       .  D
C717        C789   1.485       .  S
C718       C1017   1.531       .  S
C718        C754   1.481       .  S
C719        C741   1.497       .  S
C720        C722   1.480       .  S
C721        C722   1.404       .  A
C721        C726   1.400       .  A
C721        H728   1.081       .  S
C722        C723   1.413       .  A
C723        C724   1.411       .  A
C724        C725   1.413       .  A
C724        H729   1.083       .  S
C725        C726   1.417       .  A
C726        C727   1.522       .  S
C727        F731   1.383       .  S
C727        F732   1.383       .  S
C727        F733   1.384       .  S
C730        F734   1.381       .  S
C730        F735   1.385       .  S
C730        F736   1.380   1_655  S
C737        C738   1.408       .  A
C737        C742   1.410       .  A
C737        H744   1.083       .  S
C738        C739   1.413       .  A
C739        C740   1.397       .  A
C739        C746   1.523       .  S
C740        C741   1.407       .  A
C740       H1049   1.075       .  S
C741        C742   1.420       .  A
C742        C743   1.521       .  S
C743        F747   1.380       .  S
C743        F748   1.375       .  S
C743        F749   1.384       .  S
H745       C1044   1.075   1_545  S
C746       F1054   1.382       .  S
C746        F751   1.384       .  S
C746       F1056   1.384       .  S
F750       C1050   1.382       .  S
F752       C1050   1.384       .  S
C753        C754   1.402       .  A
C753        C758   1.408       .  A
C753       H1064   1.083       .  S
C754        C755   1.422       .  A
C755        C756   1.388       .  A
C756        C757   1.391       .  A
C756        H761   1.086       .  S
C757        C758   1.422       .  A
C758        C759   1.518       .  S
C759       F1067   1.385       .  S
C759        F764   1.382       .  S
C759        F765   1.383       .  S
H760       C1057   1.083       .  S
C762        F766   1.381       .  S
C762        F767   1.370       .  S
C762        F768   1.385       .  S
F763       C1063   1.385       .  S
C769        C770   1.392       .  A
C769        C774   1.389       .  A
C769        H776   1.086       .  S
C770        C771   1.424       .  A
C771        C772   1.408       .  A
C771        C778   1.518       .  S
C772        C773   1.401       .  A
C772        H777   1.083       .  S
C773        C774   1.422       .  A
C774        C775   1.512       .  S
C775        F779   1.385       .  S
C775        F781   1.369       .  S
C778        F782   1.382       .  S
C778        F783   1.383       .  S
C778        F784   1.385       .  S
C785        C786   1.412       .  A
C785        C790   1.411       .  A
C785        H792   1.083       .  S
C786        C787   1.418       .  A
C787        C788   1.402       .  A
C787        C794   1.521       .  S
C788        C789   1.404       .  A
C789        C790   1.415       .  A
C790        C791   1.520       .  S
C791        F795   1.381       .  S
C791        F796   1.381       .  S
C791        F797   1.385       .  S
C794        F798   1.383       .  S
C794        F799   1.383       .  S
C801        C802   1.407       .  A
C801        C806   1.408       .  A
C801        H808   1.083       .  S
C802        C803   1.412       .  A
C803        C804   1.398       .  A
C803        C810   1.523       .  S
C804        C805   1.407       .  A
C804        H809   1.076       .  S
C805        C806   1.418       .  A
C806        C807   1.520       .  S
C807        F811   1.384       .  S
C807       F1116   1.381       .  S
C807        F813   1.375       .  S
C810        F814   1.382       .  S
C810        F815   1.384       .  S
F812       C1111   1.381       .  S
C817        C818   1.404       .  A
C817        C822   1.416       .  A
C817        H824   1.081       .  S
C818        C819   1.415       .  A
C819        C820   1.385       .  A
C820        C821   1.393       .  A
C820        H825   1.085       .  S
C821        C822   1.429       .  A
C822        C823   1.519       .  S
C823        F827   1.385       .  S
C823        F828   1.383       .  S
C823        F829   1.383       .  S
C826        F830   1.379       .  S
C826        F831   1.374       .  S
C826        F832   1.385       .  S
C833        C834   1.400       .  A
C833        C838   1.387       .  A
C833        H840   1.084       .  S
C834        C835   1.428       .  A
C835        C836   1.410       .  A
C835        C842   1.518       .  S
C836        C837   1.402       .  A
C836        H841   1.082       .  S
C837        C838   1.408       .  A
C838       C1143   1.500   1_545  S
C839       C1142   1.500       .  S
C839       F1147   1.385       .  S
C839        F845   1.373       .  S
C842        F846   1.383       .  S
C842        F847   1.382       .  S
C842        F848   1.385       .  S
F843       C1143   1.385       .  S
C849        C850   1.403       .  A
C849        C854   1.395       .  A
C849        H856   1.084       .  S
C850        C851   1.433       .  A
C851        C852   1.417       .  A
C851        C858   1.520       .  S
C852        C853   1.399       .  A
C853        C854   1.410       .  A
C854        C855   1.507       .  S
C855        F859   1.380       .  S
C855        F860   1.380       .  S
C855        F861   1.383       .  S
C858        F862   1.383   1_655  S
C858        F863   1.383       .  S
C865        C866   1.404       .  A
C865        C870   1.406       .  A
C865        H872   1.085       .  S
C866        C867   1.410       .  A
C867        C868   1.404       .  A
C867        C874   1.520   1_545  S
C868        C869   1.410       .  A
C868        H873   1.077   1_545  S
C869        C870   1.426       .  A
C870        C871   1.515       .  S
C871        F875   1.384   1_655  S
C871        F876   1.383       .  S
C874        F878   1.383       .  S
C874        F879   1.384       .  S
C874        F880   1.377       .  S
C881        C882   1.399       .  A
C881        C886   1.388       .  A
C881        H888   1.085       .  S
C882        C883   1.428       .  A
C883        C884   1.411       .  A
C883        C890   1.518       .  S
C884        C885   1.399       .  A
C884        H889   1.082       .  S
C885        C886   1.409       .  A
C886        C887   1.504       .  S
C887        F891   1.384       .  S
C887        F892   1.381       .  S
C887        F893   1.376       .  S
C890        F894   1.383   1_545  S
C890        F895   1.382       .  S
C890        F896   1.385       .  S
C897        C898   1.395       .  A
C897        C902   1.391       .  A
C897        H904   1.085       .  S
C898        C899   1.428       .  A
C899        C900   1.413       .  A
C899        C906   1.520       .  S
C900        C901   1.401       .  A
C900        H905   1.081       .  S
C901        C902   1.415       .  A
C903        F907   1.385       .  S
C903        F908   1.379       .  S
C903        F909   1.372       .  S
C906        F910   1.383       .  S
C906        F911   1.382       .  S
C906        F912   1.385       .  S
Zn913       O917   1.977       .  S
Zn913       O918   1.983       .  S
Zn913       O922   1.993       .  S
Zn913       O929   2.020       .  S
Zn914       O917   1.960       .  S
Zn914       O919   1.984       .  S
Zn914       O921   1.987       .  S
Zn914       O925   2.026       .  S
Zn915       O917   1.964       .  S
Zn915       O920   1.962       .  S
Zn915       O923   1.987       .  S
Zn915       O926   2.002       .  S
Zn916       O917   1.953       .  S
Zn916       O924   2.141       .  S
Zn916       O927   2.138       .  S
Zn916       O928   2.125       .  S
O918        C930   1.267       .  A
O919        C931   1.271       .  A
O920        C932   1.268       .  A
O921        C930   1.268       .  A
O922        C932   1.266       .  A
O923        C931   1.264       .  A
O924        C933   1.292       .  A
O925        C934   1.274       .  A
O926        C933   1.271       .  A
O927        C934   1.293       .  A
O928        C935   1.291       .  A
O929        C935   1.273       .  A
C930       C1170   1.481       .  S
C931       C1202   1.482       .  S
C932       C1186   1.478       .  S
C933       C1010   1.497       .  S
Zn936       O940   1.942       .  S
Zn936       O941   2.144       .  S
Zn936       O945   2.128       .  S
Zn936       O952   2.123       .  S
Zn937       O940   1.945       .  S
Zn937       O942   2.005       .  S
Zn937       O944   2.039       .  S
Zn937       O948   1.980       .  S
Zn938       O940   1.961       .  S
Zn938       O943   2.036       .  S
Zn938       O946   2.001       .  S
Zn938       O949   1.994       .  S
Zn939       O940   1.957       .  S
Zn939       O947   1.954       .  S
Zn939       O950   1.992       .  S
Zn939       O951   1.998       .  S
O941        C953   1.293       .  A
O942        C954   1.267       .  A
O943        C955   1.276       .  A
O944        C953   1.276       .  A
O945        C955   1.291       .  A
O946        C954   1.275       .  A
O947        C956   1.268       .  A
O948        C957   1.272       .  A
O949        C956   1.265       .  A
O950        C957   1.264       .  A
O951        C958   1.270       .  A
O952        C958   1.290       .  A
C954       C1154   1.498       .  S
C955        C986   1.501       .  S
C956       C1138   1.481       .  S
C957       C1125   1.479       .  S
C959        H960   1.112       .  S
C959        C964   1.533       .  S
C961        C967   1.549       .  S
C963        C966   1.384       .  D
C963       C1173   1.501       .  S
C964        C967   1.367       .  D
C964       C1189   1.486       .  S
C965        C968   1.370       .  D
C965       C1205   1.490       .  S
C966       C1122   1.496       .  S
C967       C1141   1.491       .  S
C968       C1157   1.493       .  S
Zn969       O973   1.964       .  S
Zn969       O974   2.028       .  S
Zn969       O978   1.985       .  S
Zn969       O985   2.010       .  S
Zn970       O973   1.960       .  S
Zn970       O975   2.124       .  S
Zn970       O977   2.134       .  S
Zn970       O981   2.147       .  S
Zn971       O973   1.977       .  S
Zn971       O976   1.977       .  S
Zn971       O979   1.991       .  S
Zn971       O982   1.963       .  S
Zn972       O973   1.972       .  S
Zn972       O980   2.000       .  S
Zn972       O983   2.037       .  S
Zn972       O984   2.001       .  S
O974        C986   1.275       .  A
O975        C987   1.290       .  A
O976        C988   1.263       .  A
O977        C986   1.291       .  A
O978        C988   1.270       .  A
O979        C987   1.269       .  A
O980        C989   1.270       .  A
O981        C990   1.293       .  A
O982        C989   1.264       .  A
O983        C990   1.276       .  A
O984        C991   1.269       .  A
O985        C991   1.271       .  A
C988       C1074   1.471       .  S
C989       C1106   1.474       .  S
C991       C1090   1.488       .  S
Zn992       O996   1.974       .  S
Zn992       O997   2.004       .  S
Zn992      O1001   1.971       .  S
Zn992      O1008   1.978       .  S
Zn993       O996   1.956   1_556  S
Zn993       O998   2.125       .  S
Zn993      O1000   2.134       .  S
Zn993      O1004   2.143       .  S
Zn994       O996   1.973       .  S
Zn994       O999   2.003       .  S
Zn994      O1002   2.028       .  S
Zn994      O1005   1.999       .  S
Zn995       O996   1.962       .  S
Zn995      O1003   2.000       .  S
Zn995      O1006   2.015       .  S
Zn995      O1007   1.966       .  S
O997       C1009   1.270   1_554  A
O998       C1010   1.292       .  A
O999       C1011   1.270       .  A
O1000      C1009   1.290       .  A
O1001      C1011   1.265       .  A
O1002      C1010   1.275   1_554  A
O1003      C1012   1.269       .  A
O1004      C1013   1.293       .  A
O1005      C1012   1.269       .  A
O1006      C1013   1.272   1_554  A
O1007      C1014   1.269       .  A
O1008      C1014   1.265       .  A
C1011      C1042   1.478       .  S
C1012      C1029   1.487       .  S
C1014      C1061   1.466       .  S
C1015      H1016   1.111       .  S
C1015      C1021   1.536       .  S
C1017      H1018   1.111       .  S
C1017      C1024   1.535       .  S
C1019      C1022   1.375       .  D
C1019      C1109   1.493       .  S
C1020      C1023   1.375       .  D
C1020      C1077   1.479       .  S
C1021      C1024   1.372       .  D
C1021      C1093   1.485       .  S
C1022      C1058   1.481       .  S
C1023      C1045   1.497       .  S
C1024      C1026   1.480       .  S
C1025      C1026   1.404       .  A
C1025      C1030   1.400       .  A
C1025      H1032   1.081       .  S
C1026      C1027   1.413       .  A
C1027      C1028   1.411       .  A
C1028      C1029   1.413       .  A
C1028      H1033   1.083       .  S
C1029      C1030   1.417       .  A
C1030      C1031   1.522       .  S
C1031      F1035   1.383       .  S
C1031      F1036   1.383       .  S
C1031      F1037   1.384       .  S
C1034      F1038   1.381       .  S
C1034      F1039   1.385       .  S
C1034      F1040   1.380   1_655  S
C1041      C1042   1.408       .  A
C1041      C1046   1.410       .  A
C1041      H1048   1.083       .  S
C1042      C1043   1.413       .  A
C1043      C1044   1.397       .  A
C1043      C1050   1.523   1_565  S
C1044      C1045   1.407       .  A
C1045      C1046   1.420       .  A
C1046      C1047   1.521       .  S
C1047      F1051   1.380       .  S
C1047      F1052   1.375       .  S
C1047      F1053   1.384       .  S
C1050      F1055   1.384   1_545  S
C1057      C1058   1.402       .  A
C1057      C1062   1.408       .  A
C1058      C1059   1.422       .  A
C1059      C1060   1.388       .  A
C1060      C1061   1.391       .  A
C1060      H1065   1.086       .  S
C1061      C1062   1.422       .  A
C1062      C1063   1.518       .  S
C1063      F1068   1.382   1_565  S
C1063      F1069   1.383       .  S
C1066      F1070   1.381       .  S
C1066      F1071   1.370       .  S
C1066      F1072   1.385       .  S
C1073      C1074   1.392       .  A
C1073      C1078   1.389       .  A
C1073      H1080   1.086       .  S
C1074      C1075   1.424       .  A
C1075      C1076   1.408       .  A
C1075      C1082   1.518       .  S
C1076      C1077   1.401       .  A
C1076      H1081   1.083       .  S
C1077      C1078   1.422       .  A
C1078      C1079   1.512       .  S
C1079      F1083   1.385       .  S
C1079      F1085   1.369       .  S
C1082      F1086   1.382   1_565  S
C1082      F1087   1.383       .  S
C1082      F1088   1.385   1_565  S
C1089      C1090   1.412       .  A
C1089      C1094   1.411       .  A
C1089      H1096   1.083       .  S
C1090      C1091   1.418       .  A
C1091      C1092   1.402       .  A
C1091      C1098   1.521       .  S
C1092      C1093   1.404       .  A
C1093      C1094   1.415       .  A
C1094      C1095   1.520       .  S
C1095      F1099   1.381       .  S
C1095      F1100   1.381       .  S
C1095      F1101   1.385       .  S
C1098      F1102   1.383       .  S
C1098      F1103   1.383       .  S
C1105      C1106   1.407       .  A
C1105      C1110   1.408       .  A
C1105      H1112   1.083       .  S
C1106      C1107   1.412       .  A
C1107      C1108   1.398       .  A
C1107      C1114   1.523   1_565  S
C1108      C1109   1.407       .  A
C1108      H1113   1.076   1_565  S
C1109      C1110   1.418       .  A
C1110      C1111   1.520       .  S
C1111      F1115   1.384       .  S
C1111      F1117   1.375       .  S
C1114      F1118   1.382       .  S
C1114      F1119   1.384       .  S
C1121      C1122   1.404       .  A
C1121      C1126   1.416       .  A
C1121      H1128   1.081       .  S
C1122      C1123   1.415       .  A
C1123      C1124   1.385       .  A
C1124      C1125   1.393       .  A
C1124      H1129   1.085       .  S
C1125      C1126   1.429       .  A
C1126      C1127   1.519       .  S
C1127      F1131   1.385       .  S
C1127      F1132   1.383       .  S
C1127      F1133   1.383       .  S
C1130      F1134   1.379       .  S
C1130      F1135   1.374       .  S
C1130      F1136   1.385       .  S
C1137      C1138   1.400       .  A
C1137      C1142   1.387       .  A
C1137      H1144   1.084       .  S
C1138      C1139   1.428       .  A
C1139      C1140   1.410       .  A
C1139      C1146   1.518       .  S
C1140      C1141   1.402       .  A
C1140      H1145   1.082       .  S
C1141      C1142   1.408       .  A
C1143      F1149   1.373       .  S
C1146      F1150   1.383       .  S
C1146      F1151   1.382       .  S
C1146      F1152   1.385       .  S
C1153      C1154   1.403       .  A
C1153      C1158   1.395       .  A
C1153      H1160   1.084       .  S
C1154      C1155   1.433       .  A
C1155      C1156   1.417       .  A
C1155      C1162   1.520       .  S
C1156      C1157   1.399       .  A
C1157      C1158   1.410       .  A
C1158      C1159   1.507       .  S
C1159      F1163   1.380       .  S
C1159      F1164   1.380       .  S
C1159      F1165   1.383       .  S
C1162      F1166   1.383   1_655  S
C1162      F1167   1.383       .  S
C1169      C1170   1.404       .  A
C1169      C1174   1.406       .  A
C1169      H1176   1.085       .  S
C1170      C1171   1.410       .  A
C1171      C1172   1.404       .  A
C1171      C1178   1.520       .  S
C1172      C1173   1.410       .  A
C1172      H1177   1.077       .  S
C1173      C1174   1.426       .  A
C1174      C1175   1.515       .  S
C1175      F1179   1.384   1_655  S
C1175      F1180   1.383       .  S
C1178      F1182   1.383       .  S
C1178      F1183   1.384       .  S
C1178      F1184   1.377       .  S
C1185      C1186   1.399       .  A
C1185      C1190   1.388       .  A
C1185      H1192   1.085       .  S
C1186      C1187   1.428       .  A
C1187      C1188   1.410       .  A
C1187      C1194   1.518       .  S
C1188      C1189   1.399       .  A
C1188      H1193   1.082       .  S
C1189      C1190   1.409       .  A
C1190      C1191   1.504       .  S
C1191      F1195   1.384       .  S
C1191      F1196   1.381       .  S
C1191      F1197   1.376       .  S
C1194      F1198   1.383       .  S
C1194      F1199   1.382       .  S
C1194      F1200   1.385       .  S
C1201      C1202   1.395       .  A
C1201      C1206   1.391       .  A
C1201      H1208   1.085       .  S
C1202      C1203   1.428       .  A
C1203      C1204   1.413       .  A
C1203      C1210   1.520       .  S
C1204      C1205   1.401       .  A
C1204      H1209   1.081       .  S
C1205      C1206   1.414       .  A
C1207      F1211   1.385       .  S
C1207      F1212   1.379       .  S
C1207      F1213   1.372       .  S
C1210      F1214   1.383       .  S
C1210      F1215   1.382       .  S
C1210      F1216   1.385       .  S
