geometry optimzed in LAMMPS
_audit_creation_date              2020-11-30 
_audit_creation_method            'lammps2cif' 
_symmetry_space_group_name_H-M    'P1' 
_symmetry_Int_Tables_number       1 
_symmetry_cell_setting            triclinic 
loop_ 
_symmetry_equiv_pos_as_xyz 
  x,y,z 
_cell_length_a                    55.27611908 
_cell_length_b                    55.200129803333965 
_cell_length_c                    33.38245867610653 
_cell_angle_alpha                 89.9190698011401 
_cell_angle_beta                  89.82118877037475 
_cell_angle_gamma                 120.14766161850763 
loop_ 
_atom_site_label 
_atom_site_type_symbol 
_atom_site_fract_x 
_atom_site_fract_y 
_atom_site_fract_z 
_atom_site_charge 
O1          O  0.58825263  0.39013921  0.43895083    -0.89000
C2          C  0.61934552  0.44324791  0.53283339     0.87000
Mg3        Mg  0.59362920  0.40391254  0.37835969     1.58100
O4          O  0.54681690  0.41145867  0.52552664    -0.88700
O5          O  0.55366310  0.36491905  0.48072236    -0.76100
C6          C  0.55013092  0.49635120  0.37796968     0.92100
O7          O  0.64212328  0.45171068  0.44406505    -0.75900
O8          O  0.56664742  0.49013982  0.36004384    -0.83400
Mg9        Mg  0.62491055  0.40903026  0.47550809     1.58000
C10         C  0.50828027  0.45865879  0.53576484     0.92000
O11         O  0.61139779  0.36713412  0.50484922    -0.81700
H12         H  0.50912007  0.37686195  0.52629808    -0.07000
C13         C  0.58961044  0.48933370  0.47308732     0.86900
O14         O  0.54854337  0.39677835  0.37906926    -0.76200
O15         O  0.60403555  0.42000558  0.51789613    -0.88900
O16         O  0.52551914  0.45403499  0.55477590    -0.81700
C17         C  0.57291654  0.42470576  0.62549531     0.92100
C18         C  0.59773979  0.35226752  0.53474222     0.92000
Mg19       Mg  0.53003518  0.44667129  0.44993955     1.58000
O20         O  0.53954597  0.48576551  0.41207565    -0.81700
O21         O  0.51341606  0.40571191  0.48494617    -0.75900
O22         O  0.57542709  0.40649331  0.60512206    -0.81700
O23         O  0.64938632  0.39931723  0.43314183    -0.83400
O24         O  0.57984686  0.44611695  0.31744230    -0.81800
C25         C  0.52255130  0.39737962  0.51342812     0.86400
O26         O  0.55074686  0.43394955  0.40629911    -0.88900
O27         O  0.56873898  0.46701627  0.48309053    -0.89000
O28         O  0.60040651  0.49289315  0.43836267    -0.76100
Mg29       Mg  0.56541702  0.38724875  0.54157149     1.58000
O30         O  0.56625094  0.44150600  0.60939105    -0.83400
H31         H  0.55524483  0.35342301  0.42354815    -0.07200
O32         O  0.61055598  0.44616951  0.39962473    -0.88700
H33         H  0.64694646  0.48202345  0.40495505    -0.07000
H34         H  0.51483808  0.40189272  0.38623322    -0.07200
C35         C  0.63376723  0.46072404  0.41524889     0.86400
C36         C  0.56564521  0.36879740  0.44679944     0.87000
C37         C  0.53710106  0.41071890  0.39032960     0.87000
H38         H  0.59938470  0.50598495  0.49480862    -0.07200
O39         O  0.61035907  0.45967232  0.54146726    -0.76200
Mg40       Mg  0.58882184  0.46718427  0.38015411     1.58000
H41         H  0.64131988  0.45034144  0.53669699    -0.07200
C42         C  0.65365746  0.40315053  0.39588030     0.92000
O43         O  0.59697902  0.41727857  0.31365056    -0.83400
C44         C  0.58696268  0.43108416  0.29707424     0.92100
O45         O  0.58302800  0.35886440  0.55665112    -0.83400
Mg46       Mg  0.56679697  0.45439208  0.54464944     1.58200
O47         O  0.63780801  0.40760010  0.37289749    -0.81700
O48         O  0.50820798  0.45938676  0.49746030    -0.83400
O49         O  0.58617945  0.38773323  0.94044877    -0.89000
C50         C  0.61593165  0.43991766  0.03546263     0.87000
Mg51       Mg  0.59219890  0.40180835  0.87973040     1.58100
O52         O  0.54351262  0.40768416  0.02437492    -0.88700
O53         O  0.55147182  0.36125857  0.98118638    -0.76100
C54         C  0.54957086  0.49464238  0.87693683     0.92100
O55         O  0.64004187  0.44909483  0.94655123    -0.75900
O56         O  0.56548965  0.48777471  0.85888964    -0.83400
Mg57       Mg  0.62244987  0.40625817  0.97781845     1.58000
C58         C  0.50551413  0.45618817  0.03327486     0.92000
O59         O  0.60930650  0.36466592  0.00781812    -0.81700
H60         H  0.50571099  0.37325107  0.02266508    -0.07000
C61         C  0.58733469  0.48658970  0.97400582     0.86900
O62         O  0.54721498  0.39474137  0.87915139    -0.76200
O63         O  0.60106587  0.41679336  0.01991987    -0.88900
O64         O  0.52103675  0.44922756  0.05242253    -0.81700
C65         C  0.56675481  0.41994298  0.12601206     0.92100
C66         C  0.59547217  0.34937620  0.03727883     0.92000
Mg67       Mg  0.52861364  0.44495665  0.94865139     1.58000
O68         O  0.53989074  0.48503594  0.91186451    -0.81700
O69         O  0.51102255  0.40333331  0.98282111    -0.75900
O70         O  0.57064889  0.40242059  0.10605676    -0.81700
O71         O  0.64646313  0.39596348  0.93565658    -0.83400
O72         O  0.58028902  0.44494384  0.81878306    -0.81800
C73         C  0.51952499  0.39403989  0.01098120     0.86400
O74         O  0.54943828  0.43206948  0.90573004    -0.88900
O75         O  0.56651637  0.46397958  0.98307169    -0.89000
O76         O  0.59851161  0.49083342  0.93946074    -0.76100
Mg77       Mg  0.56200413  0.38342811  0.04217048     1.58000
O78         O  0.56027489  0.43666553  0.10925929    -0.83400
H79         H  0.55427010  0.35057867  0.92395860    -0.07200
O80         O  0.60914324  0.44412983  0.90132918    -0.88700
H81         H  0.64554395  0.47983742  0.90776258    -0.07000
H82         H  0.51365271  0.40023329  0.88490144    -0.07200
C83         C  0.63214103  0.45844982  0.91761401     0.86400
C84         C  0.56392139  0.36584614  0.94755559     0.87000
C85         C  0.53584318  0.40888292  0.88964967     0.87000
H86         H  0.59659034  0.50294264  0.99624819    -0.07200
O87         O  0.60656440  0.45608869  0.04368731    -0.76200
Mg88       Mg  0.58789587  0.46541532  0.88093290     1.58000
H89         H  0.63782936  0.44711491  0.04030663    -0.07200
C90         C  0.65092679  0.39938710  0.89839569     0.92000
O91         O  0.59602341  0.41506916  0.81455715    -0.83400
C92         C  0.58623011  0.42917761  0.79822542     0.92100
O93         O  0.57971685  0.35492178  0.05868705    -0.83400
Mg94       Mg  0.56277467  0.45035248  0.04446828     1.58200
O95         O  0.63614847  0.40525097  0.87528870    -0.81700
O96         O  0.50683113  0.45837651  0.99517160    -0.83400
O97         O  0.41048188  0.60684197  0.19380294    -0.89000
C98         C  0.38098875  0.55431917  0.28867800     0.87000
Mg99       Mg  0.40463537  0.59278275  0.13327863     1.58100
O100        O  0.45327119  0.58754945  0.27806132    -0.88700
O101        O  0.44506304  0.63341623  0.23419955    -0.76100
C102        C  0.45106141  0.50307817  0.12933649     0.92100
O103        O  0.35725081  0.54522136  0.20088840    -0.75900
O104        O  0.43332411  0.50816351  0.11290777    -0.83400
Mg105      Mg  0.37413382  0.58811160  0.23159859     1.58000
C106        C  0.49435640  0.54256764  0.28637414     0.92000
O107        O  0.38728304  0.63022881  0.26063702    -0.81700
H108        H  0.49064115  0.62250807  0.27685571    -0.07000
C109        C  0.41168309  0.50882225  0.22752575     0.86900
O110        O  0.44992511  0.60081305  0.13185051    -0.76200
O111        O  0.39561508  0.57781057  0.27367413    -0.88900
O112        O  0.47752756  0.54766594  0.30595231    -0.81700
C113        C  0.42907639  0.57481973  0.37981875     0.92100
C114        C  0.40110820  0.64563702  0.28986497     0.92000
Mg115      Mg  0.47037181  0.55232350  0.20172786     1.58000
O116        O  0.46205266  0.51389386  0.16304358    -0.81700
O117        O  0.48633761  0.59327524  0.23639258    -0.75900
O118        O  0.42551935  0.59232370  0.35925825    -0.81700
O119        O  0.34931435  0.59737455  0.18952744    -0.83400
O120        O  0.41788687  0.55066633  0.07170375    -0.81800
C121        C  0.47730855  0.60179761  0.26485957     0.86400
O122        O  0.44857556  0.56404163  0.15903979    -0.88900
O123        O  0.43223517  0.53156650  0.23657542    -0.89000
O124        O  0.40034898  0.50467092  0.19324341    -0.76100
Mg125      Mg  0.43439615  0.61138321  0.29546216     1.58000
O126        O  0.43582108  0.55813483  0.36339535    -0.83400
H127        H  0.44245269  0.64396196  0.17680014    -0.07200
O128        O  0.38837386  0.55061030  0.15531000    -0.88700
H129        H  0.35236306  0.51454215  0.16261996    -0.07000
H130        H  0.48398338  0.59615477  0.13729840    -0.07200
C131        C  0.36544853  0.53601294  0.17203639     0.86400
C132        C  0.43272054  0.62873947  0.20062232     0.87000
C133        C  0.46176582  0.58715580  0.14243871     0.87000
H134        H  0.40267822  0.49226284  0.24971034    -0.07200
O135        O  0.39073632  0.53839705  0.29656027    -0.76200
Mg136      Mg  0.41043590  0.53010510  0.13461894     1.58000
H137        H  0.35891400  0.54654871  0.29323092    -0.07200
C138        C  0.34482706  0.59313018  0.15241632     0.92000
O139        O  0.40057458  0.57930978  0.06845949    -0.83400
C140        C  0.41050679  0.56552570  0.05151624     0.92100
O141        O  0.41649728  0.63982662  0.31156974    -0.83400
Mg142      Mg  0.43486684  0.54495128  0.29815566     1.58200
O143        O  0.36052753  0.58845574  0.12941203    -0.81700
O144        O  0.49303134  0.54027838  0.24827907    -0.83400
O145        O  0.41068353  0.60795436  0.69383411    -0.89000
C146        C  0.38217416  0.55650055  0.78963024     0.87000
Mg147      Mg  0.40447201  0.59348315  0.63359454     1.58100
O148        O  0.45435463  0.58997497  0.77707259    -0.88700
O149        O  0.44544376  0.63538259  0.73337002    -0.76100
C150        C  0.45261768  0.50548114  0.62862287     0.92100
O151        O  0.35780625  0.54630809  0.70246030    -0.75900
O152        O  0.43450598  0.51040352  0.61327373    -0.83400
Mg153      Mg  0.37472890  0.58954711  0.73216747     1.58000
C154        C  0.49354970  0.54267141  0.78788125     0.92000
O155        O  0.38842217  0.63220884  0.75973471    -0.81700
H156        H  0.49190875  0.62474413  0.77526944    -0.07000
C157        C  0.41273912  0.51053691  0.72838317     0.86900
O158        O  0.44993143  0.60167513  0.63217461    -0.76200
O159        O  0.39659549  0.57988931  0.77423881    -0.88900
O160        O  0.47912728  0.55150128  0.80577817    -0.81700
C161        C  0.43102525  0.57785682  0.87950573     0.92100
C162        C  0.40274113  0.64813680  0.78825358     0.92000
Mg163      Mg  0.47123591  0.55319725  0.70221570     1.58000
O164        O  0.46257294  0.51422412  0.66361637    -0.81700
O165        O  0.48752044  0.59459633  0.73638451    -0.75900
O166        O  0.42715679  0.59523837  0.85916476    -0.81700
O167        O  0.34967200  0.59829056  0.69013419    -0.83400
O168        O  0.41753182  0.55109604  0.57232196    -0.81800
C169        C  0.47844811  0.60385845  0.76387550     0.86400
O170        O  0.44944344  0.56525428  0.65926222    -0.88900
O171        O  0.43316245  0.53349290  0.73684824    -0.89000
O172        O  0.40124300  0.50593423  0.69419519    -0.76100
Mg173      Mg  0.43549633  0.61378979  0.79493093     1.58000
O174        O  0.43790958  0.56141907  0.86274556    -0.83400
H175        H  0.44200314  0.64519664  0.67588730    -0.07200
O176        O  0.38858276  0.55149182  0.65636831    -0.88700
H177        H  0.35286593  0.51530533  0.66479888    -0.07000
H178        H  0.48447670  0.59783832  0.63753977    -0.07200
C179        C  0.36587118  0.53691220  0.67366606     0.86400
C180        C  0.43274513  0.63016650  0.70003359     0.87000
C181        C  0.46224663  0.58844667  0.64274890     0.87000
H182        H  0.40407030  0.49420099  0.75088795    -0.07200
O183        O  0.39203236  0.54063712  0.79717859    -0.76200
Mg184      Mg  0.41092720  0.53123720  0.63551235     1.58000
H185        H  0.36014704  0.54872619  0.79470067    -0.07200
C186        C  0.34507835  0.59473150  0.65300522     0.92000
O187        O  0.40020758  0.57972119  0.56879062    -0.83400
C188        C  0.40991426  0.56569125  0.55199580     0.92100
O189        O  0.41746074  0.64201993  0.81089965    -0.83400
Mg190      Mg  0.43630619  0.54771996  0.79798036     1.58200
O191        O  0.36011992  0.58917281  0.62984639    -0.81700
O192        O  0.49269090  0.53980431  0.74979308    -0.83400
O193        O  0.19786901  0.61353286  0.05431427    -0.89000
C194        C  0.17602481  0.55925599  0.96208621     0.87000
Mg195      Mg  0.19151363  0.60178254  0.11571895     1.58100
O196        O  0.13426501  0.58952617  0.97184591    -0.88700
O197        O  0.18824026  0.63819497  0.01229103    -0.76100
C198        C  0.05735084  0.50756615  0.12782529     0.92100
O199        O  0.19221322  0.55295518  0.05133200    -0.75900
O200        O  0.08090702  0.51451532  0.14326367    -0.83400
Mg201      Mg  0.21614549  0.59505438  0.01792501     1.58000
C202        C  0.04810135  0.54007503  0.96839817     0.92000
O203        O  0.24235444  0.63634862  0.98706581    -0.81700
H204        H  0.12985928  0.62328792  0.97178706    -0.07000
C205        C  0.10183077  0.51246852  0.02818953     0.86900
O206        O  0.15304928  0.60780567  0.11667970    -0.76200
O207        O  0.18373154  0.58261858  0.97643895    -0.88900
O208        O  0.06989442  0.54561983  0.94807235    -0.81700
C209        C  0.14458225  0.57488550  0.87069830     0.92100
C210        C  0.24381453  0.65166271  0.95776415     0.92000
Mg211      Mg  0.08385230  0.55415958  0.05145707     1.58000
O212        O  0.05546980  0.51576974  0.09267489    -0.81700
O213        O  0.10667145  0.59439578  0.01407972    -0.75900
O214        O  0.16581217  0.59370984  0.88970571    -0.81700
O215        O  0.25149392  0.60696621  0.05915476    -0.83400
O216        O  0.13822926  0.56069676  0.17997662    -0.81800
C217        C  0.12367598  0.60304958  0.98479619     0.86400
O218        O  0.11834857  0.56902881  0.09267862    -0.88900
O219        O  0.10258438  0.53431643  0.01756941    -0.89000
O220        O  0.10976717  0.50986287  0.06284656    -0.76100
Mg221      Mg  0.17666937  0.61458289  0.95248592     1.58000
O222        O  0.12174425  0.55825322  0.88876611    -0.83400
H223        H  0.20208312  0.65057796  0.06892534    -0.07200
O224        O  0.16688468  0.55877954  0.09704979    -0.88700
H225        H  0.16820531  0.52333792  0.09243268    -0.07000
H226        H  0.11331825  0.60058656  0.11173857    -0.07200
C227        C  0.17563525  0.54431771  0.08127322     0.86400
C228        C  0.19667756  0.63480037  0.04610154     0.87000
C229        C  0.12742639  0.59257379  0.10733623     0.87000
H230        H  0.09481352  0.49538567  0.00719694    -0.07200
O231        O  0.15046759  0.54204706  0.95524760    -0.76200
Mg232      Mg  0.12499103  0.53737500  0.11946022     1.58000
H233        H  0.19129299  0.55277753  0.95723378    -0.07200
C234        C  0.25232031  0.60362150  0.09647185     0.92000
O235        O  0.18382255  0.59097655  0.18166787    -0.83400
C236        C  0.16029236  0.57738667  0.19926870     0.92100
O237        O  0.22290885  0.64458829  0.93473793    -0.83400
Mg238      Mg  0.11146155  0.54617128  0.95485664     1.58200
O239        O  0.23185058  0.59876099  0.11946018    -0.81700
O240        O  0.04815755  0.53935145  0.00656397    -0.83400
O241        O  0.19662815  0.61205804  0.55602072    -0.89000
C242        C  0.17388461  0.56175156  0.45918944     0.87000
Mg243      Mg  0.18843779  0.59735001  0.61587884     1.58100
O244        O  0.13401734  0.59379488  0.47331860    -0.88700
O245        O  0.18841872  0.63933301  0.51731892    -0.76100
C246        C  0.05354924  0.50603922  0.62037657     0.92100
O247        O  0.18816849  0.55061858  0.54630641    -0.75900
O248        O  0.07684228  0.51240807  0.63612754    -0.83400
Mg249      Mg  0.21410250  0.59405553  0.51712934     1.58000
C250        C  0.04763579  0.54645685  0.46442577     0.92000
O251        O  0.24217247  0.63701960  0.49029418    -0.81700
H252        H  0.13050090  0.62807637  0.47534196    -0.07000
C253        C  0.09839498  0.51427011  0.52099332     0.86900
O254        O  0.15100833  0.60521048  0.61746139    -0.76200
O255        O  0.18229934  0.58465778  0.47555476    -0.88900
O256        O  0.07020104  0.55375466  0.44499297    -0.81700
C257        C  0.14574418  0.58380683  0.37068188     0.92100
C258        C  0.24355904  0.65293802  0.46179054     0.92000
Mg259      Mg  0.08141953  0.55583418  0.54848181     1.58000
O260        O  0.05213242  0.51592252  0.58634127    -0.81700
O261        O  0.10545851  0.59764900  0.51474796    -0.75900
O262        O  0.16669551  0.60102631  0.39151624    -0.81700
O263        O  0.24829993  0.60176932  0.55881131    -0.83400
O264        O  0.13316228  0.55534251  0.67670097    -0.81800
C265        C  0.12351193  0.60725023  0.48679797     0.86400
O266        O  0.11554331  0.56837171  0.59038568    -0.88900
O267        O  0.09992472  0.53683761  0.51266322    -0.89000
O268        O  0.10577203  0.50990272  0.55504384    -0.76100
Mg269      Mg  0.17673949  0.61836355  0.45565666     1.58000
O270        O  0.12235097  0.56647803  0.38679757    -0.83400
H271        H  0.20222896  0.64896180  0.57449143    -0.07200
O272        O  0.16289187  0.55579582  0.59280756    -0.88700
H273        H  0.16257146  0.51973612  0.58478169    -0.07000
H274        H  0.11221478  0.60040282  0.61189047    -0.07200
C275        C  0.17103351  0.54128683  0.57557631     0.86400
C276        C  0.19641766  0.63411736  0.55023310     0.87000
C277        C  0.12547586  0.59148595  0.60683144     0.87000
H278        H  0.09122238  0.49811164  0.49848282    -0.07200
O279        O  0.14826839  0.54566599  0.45117651    -0.76200
Mg280      Mg  0.12078777  0.53490639  0.61391508     1.58000
H281        H  0.18855037  0.55457969  0.45353292    -0.07200
C282        C  0.24765290  0.59605123  0.59565241     0.92000
O283        O  0.17910589  0.58343665  0.68066072    -0.83400
C284        C  0.15513099  0.57043680  0.69718993     0.92100
O285        O  0.22275471  0.64680342  0.43913436    -0.83400
Mg286      Mg  0.11040559  0.55165473  0.45153339     1.58200
O287        O  0.22740426  0.59192225  0.61858160    -0.81700
O288        O  0.04635295  0.54296985  0.50235463    -0.83400
O289        O  0.80474269  0.38453045  0.31060134    -0.89000
C290        C  0.82555483  0.43689232  0.21581126     0.87000
Mg291      Mg  0.81132578  0.39857126  0.37101272     1.58100
O292        O  0.86802768  0.40727533  0.22527251    -0.88700
O293        O  0.81529737  0.35995645  0.26960026    -0.76100
C294        C  0.94582528  0.49474237  0.37274308     0.92100
O295        O  0.80824675  0.44405500  0.30379433    -0.75900
O296        O  0.92272257  0.48836427  0.38974829    -0.83400
Mg297      Mg  0.78533760  0.40093532  0.27289038     1.58000
C298        C  0.95353725  0.45600089  0.21781051     0.92000
O299        O  0.76004134  0.35847818  0.24484814    -0.81700
H300        H  0.87199133  0.37325507  0.22670956    -0.07000
C301        C  0.90019567  0.48501926  0.27596933     0.86900
O302        O  0.85014471  0.39307554  0.37306764    -0.76200
O303        O  0.81810138  0.41378157  0.23108058    -0.88900
O304        O  0.93187790  0.45112132  0.19805663    -0.81700
C305        C  0.85607668  0.41965918  0.12395046     0.92100
C306        C  0.75936466  0.34354601  0.21564098     0.92000
Mg307      Mg  0.91834334  0.44375705  0.30240726     1.58000
O308        O  0.94656338  0.48324315  0.33995026    -0.81700
O309        O  0.89520358  0.40253408  0.26815060    -0.75900
O310        O  0.83521484  0.40149714  0.14443320    -0.81700
O311        O  0.74969157  0.38830487  0.31434675    -0.83400
O312        O  0.86549096  0.44314365  0.43195727    -0.81800
C313        C  0.87841439  0.39374757  0.23887767     0.86400
O314        O  0.88433996  0.43070236  0.34507310    -0.88900
O315        O  0.89965049  0.46299894  0.26719248    -0.89000
O316        O  0.89204318  0.48851916  0.30997722    -0.76100
Mg317      Mg  0.82564032  0.38198007  0.20809995     1.58000
O318        O  0.87922635  0.43693536  0.14046411    -0.83400
H319        H  0.80291573  0.34883489  0.32727487    -0.07200
O320        O  0.83544508  0.44068734  0.34858167    -0.88700
H321        H  0.83254437  0.47520781  0.34249504    -0.07000
H322        H  0.88984659  0.40022072  0.36766063    -0.07200
C323        C  0.82561477  0.45409316  0.33252385     0.86400
C324        C  0.80717709  0.36381649  0.30350865     0.87000
C325        C  0.87559648  0.40791014  0.36223243     0.87000
H326        H  0.90697076  0.50139151  0.25367441    -0.07200
O327        O  0.85094188  0.45383742  0.20714998    -0.76200
Mg328      Mg  0.87785475  0.46346320  0.36883051     1.58000
H329        H  0.81025219  0.44333769  0.21144404    -0.07200
C330        C  0.74925326  0.39423685  0.35078216     0.92000
O331        O  0.82002319  0.41214108  0.43585689    -0.83400
C332        C  0.84362683  0.42715761  0.45253603     0.92100
O333        O  0.77995259  0.35178262  0.19152846    -0.83400
Mg334      Mg  0.89020595  0.45011375  0.20565861     1.58200
O335        O  0.77032052  0.40150810  0.37367660    -0.81700
O336        O  0.95375633  0.45677189  0.25611122    -0.83400
O337        O  0.80498595  0.38876382  0.81108549    -0.89000
C338        C  0.82694457  0.43994768  0.71464463     0.87000
Mg339      Mg  0.81212711  0.40288672  0.87135551     1.58100
O340        O  0.86787040  0.40895509  0.72640471    -0.88700
O341        O  0.81449127  0.36286785  0.77125049    -0.76100
C342        C  0.94704713  0.49528271  0.87462636     0.92100
O343        O  0.81192061  0.44960499  0.80198070    -0.75900
O344        O  0.92385603  0.48909292  0.89097988    -0.83400
Mg345      Mg  0.78697359  0.40629437  0.77236187     1.58000
C346        C  0.95379793  0.45715889  0.71837358     0.92000
O347        O  0.75955235  0.36342298  0.74561634    -0.81700
H348        H  0.87170574  0.37484925  0.72802225    -0.07000
C349        C  0.90213127  0.48770890  0.77629403     0.86900
O350        O  0.85015673  0.39599433  0.87317616    -0.76200
O351        O  0.81903773  0.41691933  0.73050802    -0.88900
O352        O  0.93162782  0.45077519  0.69876216    -0.81700
C353        C  0.85647518  0.42041022  0.62462947     0.92100
C354        C  0.75827943  0.34754338  0.71730690     0.92000
Mg355      Mg  0.91919196  0.44594107  0.80273759     1.58000
O356        O  0.94816518  0.48524972  0.84064739    -0.81700
O357        O  0.89568180  0.40462117  0.76849169    -0.75900
O358        O  0.83539491  0.40234035  0.64494102    -0.81700
O359        O  0.75234199  0.39699277  0.81362257    -0.83400
O360        O  0.86691755  0.44566365  0.93185584    -0.81800
C361        C  0.87833342  0.39547560  0.73988843     0.86400
O362        O  0.88503854  0.43303181  0.84513770    -0.88900
O363        O  0.90074489  0.46528295  0.76757269    -0.89000
O364        O  0.89453763  0.49166229  0.81048039    -0.76100
Mg365      Mg  0.82528071  0.38396979  0.70932339     1.58000
O366        O  0.87944554  0.43785627  0.64132460    -0.83400
H367        H  0.80175543  0.35266608  0.82894804    -0.07200
O368        O  0.83726996  0.44490699  0.84864030    -0.88700
H369        H  0.83669940  0.48052584  0.84058733    -0.07000
H370        H  0.88932139  0.40169074  0.86733874    -0.07200
C371        C  0.82878899  0.45910085  0.83134101     0.86400
C372        C  0.80654309  0.36747427  0.80475236     0.87000
C373        C  0.87563177  0.41010005  0.86212284     0.87000
H374        H  0.90931241  0.50408422  0.75397778    -0.07200
O375        O  0.85248893  0.45665871  0.70667896    -0.76200
Mg376      Mg  0.87954951  0.46625764  0.86917000     1.58000
H377        H  0.81189655  0.44664707  0.70948423    -0.07200
C378        C  0.75188532  0.40202018  0.85041077     0.92000
O379        O  0.82102848  0.41649256  0.93632629    -0.83400
C380        C  0.84494612  0.43056552  0.95260599     0.92100
O381        O  0.77898634  0.35442237  0.69374987    -0.83400
Mg382      Mg  0.89087129  0.45161240  0.70614341     1.58200
O383        O  0.77194678  0.40682164  0.87403352    -0.81700
O384        O  0.95441716  0.45927413  0.75646179    -0.83400
O385        O  0.61265106  0.19472787  0.10135052    -0.89000
C386        C  0.56151393  0.17392323  0.19755047     0.87000
Mg387      Mg  0.59767546  0.18769423  0.04144864     1.58100
O388        O  0.59137230  0.13176397  0.18730741    -0.88700
O389        O  0.63762035  0.18417467  0.14146120    -0.76100
C390        C  0.50421578  0.05274566  0.04055751     0.92100
O391        O  0.55303730  0.19044209  0.11035020    -0.75900
O392        O  0.51019685  0.07590015  0.02413403    -0.83400
Mg393      Mg  0.59662398  0.21409848  0.13980430     1.58000
C394        C  0.54408210  0.04665127  0.19502043     0.92000
O395        O  0.63967884  0.23982901  0.16636688    -0.81700
H396        H  0.62545091  0.12799455  0.18575650    -0.07000
C397        C  0.51315263  0.09837425  0.13816223     0.86900
O398        O  0.60412761  0.14936414  0.03902788    -0.76200
O399        O  0.58451805  0.18152380  0.18185503    -0.88900
O400        O  0.54884097  0.06817564  0.21519710    -0.81700
C401        C  0.58010252  0.14443224  0.28897607     0.92100
C402        C  0.65484170  0.24044334  0.19518961     0.92000
Mg403      Mg  0.55490759  0.08113030  0.11076971     1.58000
O404        O  0.51531922  0.05192525  0.07366203    -0.81700
O405        O  0.59621686  0.10461293  0.14443551    -0.75900
O406        O  0.59811225  0.16508506  0.26800159    -0.81700
O407        O  0.60812506  0.24949915  0.09799422    -0.83400
O408        O  0.55446942  0.13254604  0.98227568    -0.81800
C409        C  0.60495472  0.12143747  0.17369295     0.86400
O410        O  0.56733297  0.11505476  0.06843426    -0.88900
O411        O  0.53542445  0.09940826  0.14655337    -0.89000
O412        O  0.50921193  0.10623582  0.10422104    -0.76100
Mg413      Mg  0.61662001  0.17421437  0.20370837     1.58000
O414        O  0.56261582  0.12109452  0.27299396    -0.83400
H415        H  0.64797410  0.19627253  0.08354624    -0.07200
O416        O  0.55617700  0.16311284  0.06536405    -0.88700
H417        H  0.52143979  0.16539712  0.07278858    -0.07000
H418        H  0.59786024  0.10995098  0.04504976    -0.07200
C419        C  0.54273344  0.17272683  0.08199189     0.86400
C420        C  0.63335819  0.19219584  0.10775760     0.87000
C421        C  0.58989699  0.12398079  0.05059288     0.87000
H422        H  0.49692365  0.09139367  0.16072131    -0.07200
O423        O  0.54477087  0.14849416  0.20640601    -0.76200
Mg424      Mg  0.53409593  0.12062115  0.04519263     1.58000
H425        H  0.55493673  0.18916141  0.20208853    -0.07200
C426        C  0.60034564  0.24895521  0.06228279     0.92000
O427        O  0.58312558  0.17851324  0.97698915    -0.83400
C428        C  0.56929356  0.15438351  0.96110884     0.92100
O429        O  0.64672753  0.21991464  0.21937997    -0.83400
Mg430      Mg  0.54890198  0.10942879  0.20788822     1.58200
O431        O  0.59328982  0.22789065  0.03944211    -0.81700
O432        O  0.54280816  0.04630757  0.15680458    -0.83400
O433        O  0.61237092  0.19570170  0.60255008    -0.89000
C434        C  0.56172026  0.17655437  0.69911358     0.87000
Mg435      Mg  0.59816191  0.18972522  0.54197661     1.58100
O436        O  0.59005504  0.13321239  0.68673911    -0.88700
O437        O  0.63776760  0.18584805  0.64263911    -0.76100
C438        C  0.50536034  0.05570696  0.53519985     0.92100
O439        O  0.55322287  0.19176765  0.61099189    -0.75900
O440        O  0.51215579  0.07925854  0.51962819    -0.83400
Mg441      Mg  0.59670828  0.21528052  0.64089925     1.58000
C442        C  0.53731624  0.04755427  0.69440483     0.92000
O443        O  0.63917288  0.24125928  0.66852024    -0.81700
H444        H  0.62290192  0.12737574  0.68557715    -0.07000
C445        C  0.51155975  0.10093702  0.63546499     0.86900
O446        O  0.60411390  0.15095816  0.53951687    -0.76200
O447        O  0.58446434  0.18335605  0.68324394    -0.88900
O448        O  0.54608048  0.07030911  0.71365934    -0.81700
C449        C  0.57931464  0.14485133  0.78882962     0.92100
C450        C  0.65461936  0.24239031  0.69722035     0.92000
Mg451      Mg  0.55177101  0.08197640  0.60995127     1.58000
O452        O  0.51232613  0.05359291  0.57097418    -0.81700
O453        O  0.59282258  0.10413678  0.64512311    -0.75900
O454        O  0.59777361  0.16573614  0.76870473    -0.81700
O455        O  0.60950030  0.25020519  0.59942112    -0.83400
O456        O  0.55542565  0.13587945  0.48069154    -0.81800
C457        C  0.60260423  0.12166578  0.67354514     0.86400
O458        O  0.56659046  0.11658687  0.56751697    -0.88900
O459        O  0.53381580  0.10222807  0.64461711    -0.89000
O460        O  0.50787686  0.10813891  0.60086568    -0.76100
Mg461      Mg  0.61637794  0.17555674  0.70449956     1.58000
O462        O  0.56118396  0.12233459  0.77165850    -0.83400
H463        H  0.64807068  0.19806984  0.58476712    -0.07200
O464        O  0.55616227  0.16519380  0.56447052    -0.88700
H465        H  0.52143847  0.16728554  0.57332329    -0.07000
H466        H  0.59734894  0.11132768  0.54541765    -0.07200
C467        C  0.54280231  0.17451182  0.58210705     0.86400
C468        C  0.63335598  0.19368216  0.60892741     0.87000
C469        C  0.58949144  0.12547695  0.55063729     0.87000
H470        H  0.49505252  0.09397111  0.65755846    -0.07200
O471        O  0.54401812  0.15119489  0.70662853    -0.76200
Mg472      Mg  0.53427318  0.12313729  0.54289133     1.58000
H473        H  0.55614208  0.19244651  0.70456541    -0.07200
C474        C  0.60131814  0.25071796  0.56438342     0.92000
O475        O  0.58500115  0.18172433  0.47656481    -0.83400
C476        C  0.57077151  0.15785184  0.46010290     0.92100
O477        O  0.64721553  0.22163734  0.72089837    -0.83400
Mg478      Mg  0.54730447  0.11175787  0.70648694     1.58200
O479        O  0.59363967  0.23004212  0.54051783    -0.81700
O480        O  0.53593776  0.04644868  0.65624026    -0.83400
O481        O  0.38772462  0.80286022  0.35207893    -0.89000
C482        C  0.43886095  0.82579305  0.44876912     0.87000
Mg483      Mg  0.40241124  0.80953296  0.29183276     1.58100
O484        O  0.40907429  0.86787211  0.43571567    -0.88700
O485        O  0.36270299  0.81410044  0.39122963    -0.76100
C486        C  0.49484435  0.94421749  0.28596728     0.92100
O487        O  0.44837309  0.80885256  0.36124136    -0.75900
O488        O  0.48851641  0.92071741  0.27086307    -0.83400
Mg489      Mg  0.40514237  0.78517038  0.39159723     1.58000
C490        C  0.45823274  0.95387613  0.44209471     0.92000
O491        O  0.36292148  0.75912333  0.41997107    -0.81700
H492        H  0.37546120  0.87244903  0.43447193    -0.07000
C493        C  0.48731433  0.89988115  0.38619258     0.86900
O494        O  0.39624990  0.84819670  0.28901130    -0.76200
O495        O  0.41624678  0.81824034  0.43216300    -0.88900
O496        O  0.45214928  0.93207536  0.46271100    -0.81700
C497        C  0.41982590  0.85608612  0.53777000     0.92100
C498        C  0.34713210  0.75823956  0.44823179     0.92000
Mg499      Mg  0.44649458  0.91804863  0.35867874     1.58000
O500        O  0.48628701  0.94629145  0.32069541    -0.81700
O501        O  0.40508104  0.89564804  0.39304817    -0.75900
O502        O  0.40181956  0.83544518  0.51708529    -0.81700
O503        O  0.39474533  0.74924272  0.35127971    -0.83400
O504        O  0.44524963  0.86414143  0.23073511    -0.81800
C505        C  0.39587517  0.87861253  0.42221658     0.86400
O506        O  0.43299671  0.88296245  0.31739794    -0.88900
O507        O  0.46538893  0.89955082  0.39496996    -0.89000
O508        O  0.49083248  0.89163924  0.35224196    -0.76100
Mg509      Mg  0.38362382  0.82531474  0.45314061     1.58000
O510        O  0.43720011  0.87955039  0.52177006    -0.83400
H511        H  0.35196827  0.80019257  0.33425634    -0.07200
O512        O  0.44410031  0.83448894  0.31461984    -0.88700
H513        H  0.47927840  0.83304946  0.32181965    -0.07000
H514        H  0.40210859  0.88749372  0.29437587    -0.07200
C515        C  0.45801541  0.82562939  0.33162290     0.86400
C516        C  0.36679617  0.80511136  0.35825385     0.87000
C517        C  0.41029331  0.87368288  0.30007309     0.87000
H518        H  0.50366471  0.90671442  0.40834631    -0.07200
O519        O  0.45550041  0.85124514  0.45725307    -0.76200
Mg520      Mg  0.46573225  0.87672141  0.29352579     1.58000
H521        H  0.44520001  0.81051179  0.45446058    -0.07200
C522        C  0.40031056  0.74850520  0.31466642     0.92000
O523        O  0.41671350  0.81807322  0.22681459    -0.83400
C524        C  0.43051485  0.84203615  0.21021565     0.92100
O525        O  0.35356870  0.77946037  0.47023265    -0.83400
Mg526      Mg  0.45150757  0.89037683  0.45659847     1.58200
O527        O  0.40598104  0.76875545  0.29058548    -0.81700
O528        O  0.45997662  0.95404173  0.40386588    -0.83400
O529        O  0.38868714  0.80361129  0.85174141    -0.89000
C530        C  0.44127851  0.82506245  0.94612732     0.87000
Mg531      Mg  0.40204907  0.81122952  0.79095967     1.58100
O532        O  0.40968535  0.86577855  0.93777341    -0.88700
O533        O  0.36323846  0.81239630  0.89364668    -0.76100
C534        C  0.49294069  0.94624886  0.78850764     0.92100
O535        O  0.44943881  0.81018588  0.85682042    -0.75900
O536        O  0.48587041  0.92356033  0.77017214    -0.83400
Mg537      Mg  0.40655335  0.78517763  0.88832093     1.58000
C538        C  0.45697527  0.95179260  0.94610101     0.92000
O539        O  0.36427970  0.75805321  0.91661151    -0.81700
H540        H  0.37545208  0.86932459  0.93824231    -0.07000
C541        C  0.48750489  0.90049343  0.88487093     0.86900
O542        O  0.39472660  0.84910520  0.79126010    -0.76200
O543        O  0.41815301  0.81716367  0.93092825    -0.88900
O544        O  0.45112465  0.92953623  0.96541736    -0.81700
C545        C  0.42245611  0.85378685  0.03867044     0.92100
C546        C  0.34911587  0.75624718  0.94630232     0.92000
Mg547      Mg  0.44552121  0.91759617  0.86172403     1.58000
O548        O  0.48508152  0.94644046  0.82446746    -0.81700
O549        O  0.40451810  0.89383358  0.89694925    -0.75900
O550        O  0.40480264  0.83251011  0.01854849    -0.81700
O551        O  0.39540040  0.75037710  0.84608940    -0.83400
O552        O  0.44270469  0.86689692  0.73046527    -0.81800
C553        C  0.39588026  0.87620389  0.92544852     0.86400
O554        O  0.43189613  0.88367016  0.81896377    -0.88900
O555        O  0.46524189  0.89894602  0.89516321    -0.89000
O556        O  0.49101025  0.89362531  0.84986681    -0.76100
Mg557      Mg  0.38540128  0.82293661  0.95473673     1.58000
O558        O  0.43915601  0.87722617  0.02208514    -0.83400
H559        H  0.35203301  0.79984328  0.83623511    -0.07200
O560        O  0.44427456  0.83645776  0.81203798    -0.88700
H561        H  0.47991198  0.83569743  0.81768332    -0.07000
H562        H  0.40027318  0.88813072  0.79884631    -0.07200
C563        C  0.45865050  0.82767753  0.82792214     0.86400
C564        C  0.36733005  0.80472810  0.85956431     0.87000
C565        C  0.40880144  0.87443307  0.80287108     0.87000
H566        H  0.50423484  0.90736980  0.90640901    -0.07200
O567        O  0.45764723  0.85051552  0.95499255    -0.76200
Mg568      Mg  0.46470733  0.87905778  0.79197327     1.58000
H569        H  0.44826432  0.81011144  0.95024047    -0.07200
C570        C  0.40075129  0.75030989  0.80929847     0.92000
O571        O  0.41442495  0.82091761  0.72560898    -0.83400
C572        C  0.42707913  0.84520968  0.70975752     0.92100
O573        O  0.35635752  0.77653238  0.97060246    -0.83400
Mg574      Mg  0.45236184  0.88889912  0.95696258     1.58200
O575        O  0.40674762  0.77115068  0.78628571    -0.81700
O576        O  0.45915281  0.95276591  0.90800670    -0.83400
C577        C  0.42072255  0.85265505  0.58175028    -0.06800
C578        C  0.42556379  0.87499447  0.60690949    -0.17900
C579        C  0.42663021  0.87286417  0.64863647     0.10400
C580        C  0.42402019  0.84819108  0.66601451    -0.06700
C581        C  0.41896286  0.82579255  0.64075774    -0.17900
C582        C  0.41724434  0.82768036  0.59902541     0.10400
S583        S  0.42995624  0.90187090  0.67778580    -0.32900
S584        S  0.41261096  0.79873658  0.56818676    -0.32900
H585        H  0.40819708  0.77987166  0.59952018     0.28500
H586        H  0.41038995  0.88487174  0.70712891     0.28400
H587        H  0.42779675  0.89404228  0.59400077     0.19000
H588        H  0.41711023  0.80694828  0.65373248     0.19000
C589        C  0.42903435  0.84471311  0.16606186    -0.06800
C590        C  0.42841265  0.86816988  0.15086927    -0.17900
C591        C  0.42611896  0.87161334  0.10959408     0.10400
C592        C  0.42404582  0.85094863  0.08263781    -0.06700
C593        C  0.42437098  0.82736756  0.09776429    -0.17900
C594        C  0.42744025  0.82432733  0.13883883     0.10400
S595        S  0.42431136  0.90166248  0.09196276    -0.32900
S596        S  0.43082505  0.79483712  0.15412453    -0.32900
H597        H  0.45114546  0.80961771  0.18354187     0.28500
H598        H  0.42759004  0.91457871  0.12941368     0.28400
H599        H  0.42912421  0.88356222  0.17158534     0.19000
H600        H  0.42329349  0.81167431  0.07721764     0.19000
C601        C  0.52661781  0.02166731  0.71832879    -0.06800
C602        C  0.53394107  0.00150517  0.70840922    -0.17900
C603        C  0.52490391  0.97738391  0.73206538     0.10400
C604        C  0.50789041  0.97314068  0.76626625    -0.06700
C605        C  0.50103635  0.99366054  0.77618394    -0.17900
C606        C  0.50948147  0.01726929  0.75227548     0.10400
S607        S  0.53637801  0.95334051  0.71747917    -0.32900
S608        S  0.49554134  0.03969367  0.76505817    -0.32900
H609        H  0.49143058  0.04512238  0.72519780     0.28500
H610        H  0.53888350  0.94587267  0.75692344     0.28400
H611        H  0.54716774  0.00480078  0.68255218     0.19000
H612        H  0.48730103  0.99044403  0.80137701     0.19000
C613        C  0.49082300  0.03036566  0.50968968    -0.06800
C614        C  0.46863870  0.00551163  0.52542018    -0.17900
C615        C  0.45587238  0.98074805  0.50282268     0.10400
C616        C  0.46606243  0.98034636  0.46388552    -0.06700
C617        C  0.48756636  0.00551296  0.44772046    -0.17900
C618        C  0.50018739  0.03034665  0.47010403     0.10400
S619        S  0.42647956  0.95053169  0.52530548    -0.32900
S620        S  0.53026999  0.06100936  0.44913589    -0.32900
H621        H  0.53006105  0.04973115  0.41129926     0.28500
H622        H  0.41225171  0.93971109  0.48899091     0.28400
H623        H  0.46115812  0.00539845  0.55550617     0.19000
H624        H  0.49576485  0.00531571  0.41831115     0.19000
C625        C  0.57121112  0.15158957  0.91705565    -0.06800
C626        C  0.59644696  0.17001132  0.89749048    -0.17900
C627        C  0.60032931  0.16761718  0.85648076     0.10400
C628        C  0.57803685  0.14689385  0.83336777    -0.06700
C629        C  0.55295515  0.12817709  0.85322811    -0.17900
C630        C  0.54924548  0.13032483  0.89432887     0.10400
S631        S  0.63476502  0.19081574  0.83647928    -0.32900
S632        S  0.51539592  0.10604750  0.91518120    -0.32900
H633        H  0.51368854  0.12627137  0.93871383     0.28500
H634        H  0.63597526  0.16964917  0.81464351     0.28400
H635        H  0.61377200  0.18592275  0.91460939     0.19000
H636        H  0.53555003  0.11213563  0.83639738     0.19000
C637        C  0.57861445  0.14786570  0.33306486    -0.06800
C638        C  0.55242760  0.13284242  0.35220251    -0.17900
C639        C  0.54905006  0.13650707  0.39295202     0.10400
C640        C  0.57247591  0.15523444  0.41602482    -0.06700
C641        C  0.59863008  0.17041321  0.39698684    -0.17900
C642        C  0.60205332  0.16667925  0.35620993     0.10400
S643        S  0.51398102  0.11771212  0.41305383    -0.32900
S644        S  0.63718623  0.18532841  0.33641612    -0.32900
H645        H  0.63429043  0.16268848  0.31338679     0.28500
H646        H  0.51732389  0.13936539  0.43873595     0.28400
H647        H  0.53412658  0.11871251  0.33498218     0.19000
H648        H  0.61684555  0.18448540  0.41441426     0.19000
C649        C  0.53705721  0.02046204  0.21697350    -0.06800
C650        C  0.51927637  0.99491148  0.19807280    -0.17900
C651        C  0.50589419  0.96981959  0.21960585     0.10400
C652        C  0.51094187  0.96973327  0.26121170    -0.06700
C653        C  0.53027297  0.99492817  0.27960883    -0.17900
C654        C  0.54374535  0.02010895  0.25790654     0.10400
S655        S  0.48028223  0.93941779  0.19268305    -0.32900
S656        S  0.56930749  0.05083810  0.28426346    -0.32900
H657        H  0.58694971  0.06282815  0.25077549     0.28500
H658        H  0.45925262  0.93148251  0.22200260     0.28400
H659        H  0.51384791  0.99464530  0.16683837     0.19000
H660        H  0.53478118  0.99504132  0.31120620     0.19000
C661        C  0.46328770  0.97735659  0.96979193    -0.06800
C662        C  0.46319949  0.97558636  0.01199337    -0.17900
C663        C  0.47383935  0.99943091  0.03625571     0.10400
C664        C  0.48599351  0.02627486  0.01833170    -0.06700
C665        C  0.48362039  0.02787822  0.97653423    -0.17900
C666        C  0.47202560  0.00394935  0.95232583     0.10400
S667        S  0.47124814  0.99391874  0.08973754    -0.32900
S668        S  0.46984322  0.00934804  0.89950807    -0.32900
H669        H  0.44226322  0.98679141  0.89618614     0.28500
H670        H  0.46622053  0.01601409  0.09797757     0.28400
H671        H  0.45543723  0.95545707  0.02655358     0.19000
H672        H  0.49188497  0.04810815  0.96209925     0.19000
C673        C  0.68178506  0.26863441  0.70207264    -0.06800
C674        C  0.69137353  0.27876572  0.74060138    -0.17900
C675        C  0.71625866  0.30416812  0.74634040     0.10400
C676        C  0.73212182  0.32023113  0.71277101    -0.06700
C677        C  0.72269441  0.30990840  0.67427464    -0.17900
C678        C  0.69794772  0.28442384  0.66853736     0.10400
S679        S  0.72707818  0.31419361  0.79739021    -0.32900
S680        S  0.68883003  0.27286740  0.61750994    -0.32900
H681        H  0.68184072  0.24518663  0.62626088     0.28500
H682        H  0.75469239  0.32068105  0.78967914     0.28400
H683        H  0.67933413  0.26689042  0.76646099     0.19000
H684        H  0.73468062  0.32179614  0.64839017     0.19000
C685        C  0.68264420  0.26569423  0.19984244    -0.06800
C686        C  0.69288792  0.27495153  0.23838998    -0.17900
C687        C  0.71846456  0.29947504  0.24412277     0.10400
C688        C  0.73388038  0.31594140  0.21063624    -0.06700
C689        C  0.72423466  0.30607513  0.17204873    -0.17900
C690        C  0.69916008  0.28095468  0.16629912     0.10400
S691        S  0.73094554  0.30766438  0.29484504    -0.32900
S692        S  0.69023885  0.26882868  0.11549669    -0.32900
H693        H  0.68292349  0.24122185  0.12543268     0.28500
H694        H  0.75828511  0.31449728  0.28429446     0.28400
H695        H  0.68092845  0.26299917  0.26425869     0.19000
H696        H  0.73624720  0.31800738  0.14620465     0.19000
C697        C  0.84627486  0.42569345  0.49684700    -0.06800
C698        C  0.87264957  0.43293239  0.51257657    -0.17900
C699        C  0.87664320  0.43100716  0.55374299     0.10400
C700        C  0.85367834  0.42166932  0.58041566    -0.06700
C701        C  0.82726889  0.41412919  0.56470469    -0.17900
C702        C  0.82337007  0.41640477  0.52372584     0.10400
S703        S  0.91087750  0.43915849  0.57113347    -0.32900
S704        S  0.78887528  0.40838342  0.50847114    -0.32900
H705        H  0.79864314  0.43209572  0.48355375     0.28500
H706        H  0.92444325  0.44575289  0.53365759     0.28400
H707        H  0.89023430  0.43967621  0.49232163     0.19000
H708        H  0.80953528  0.40728042  0.58478229     0.19000
C709        C  0.85323168  0.42154719  0.07980023    -0.06800
C710        C  0.87018031  0.44747528  0.06067619    -0.17900
C711        C  0.86742664  0.45132391  0.01980717     0.10400
C712        C  0.84743851  0.42864768  0.99666451    -0.06700
C713        C  0.83042437  0.40276345  0.01568173    -0.17900
C714        C  0.83339973  0.39880128  0.05646342     0.10400
S715        S  0.88925166  0.48607231  0.99965826    -0.32900
S716        S  0.81242038  0.36373010  0.07589109    -0.32900
H717        H  0.83439225  0.36441499  0.09801496     0.28500
H718        H  0.86837014  0.48532289  0.97481026     0.28400
H719        H  0.88528427  0.46527215  0.07792973     0.19000
H720        H  0.81541245  0.38503312  0.99821928     0.19000
C721        C  0.26979646  0.67992196  0.45721825    -0.06800
C722        C  0.28276805  0.69501312  0.49225737    -0.17900
C723        C  0.30783930  0.72067783  0.49070951     0.10400
C724        C  0.32024408  0.73183752  0.45318145    -0.06700
C725        C  0.30688932  0.71696923  0.41813113    -0.17900
C726        C  0.28207436  0.69116265  0.41972007     0.10400
S727        S  0.32331650  0.73738565  0.53756463    -0.32900
S728        S  0.26797424  0.67320342  0.37306390    -0.32900
H729        H  0.25904874  0.64624571  0.38839675     0.28500
H730        H  0.35088895  0.74563960  0.52595432     0.28400
H731        H  0.27335859  0.68661123  0.52124017     0.19000
H732        H  0.31609752  0.72536132  0.38905233     0.19000
C733        C  0.02780749  0.48867356  0.64454244    -0.06800
C734        C  0.03027299  0.48988095  0.68655582    -0.17900
C735        C  0.00681299  0.47761616  0.71172512     0.10400
C736        C  0.97966157  0.46429881  0.69484781    -0.06700
C737        C  0.97735314  0.46090643  0.65281567    -0.17900
C738        C  0.00098577  0.47268783  0.62764025     0.10400
S739        S  0.01350046  0.48091050  0.76480327    -0.32900
S740        S  0.99639492  0.46710659  0.57422275    -0.32900
H741        H  0.96859874  0.44484850  0.57586541     0.28500
H742        H  0.99480564  0.45234397  0.77250658     0.28400
H743        H  0.05074769  0.50138914  0.70021610     0.19000
H744        H  0.95685603  0.44993817  0.63923847     0.19000
C745        C  0.02199336  0.53949899  0.44077402    -0.06800
C746        C  0.02320187  0.53720868  0.39883629    -0.17900
C747        C  0.99910729  0.52525034  0.37520225     0.10400
C748        C  0.97250943  0.51415525  0.39366095    -0.06700
C749        C  0.97149884  0.51901978  0.43491277    -0.17900
C750        C  0.99577257  0.53198082  0.45833869     0.10400
S751        S  0.00410854  0.52458915  0.32186166    -0.32900
S752        S  0.99149790  0.53785418  0.51031087    -0.32900
H753        H  0.01570052  0.56454263  0.51129395     0.28500
H754        H  0.98285004  0.53045534  0.31186589     0.28400
H755        H  0.04306491  0.54389527  0.38408295     0.19000
H756        H  0.95150477  0.51175000  0.44962472     0.19000
C757        C  0.32196883  0.73002395  0.95044116    -0.06800
C758        C  0.30622187  0.71820199  0.91543851    -0.17900
C759        C  0.28082041  0.69276315  0.91631067     0.10400
C760        C  0.27041035  0.67877224  0.95321861    -0.06700
C761        C  0.28604581  0.69104137  0.98829920    -0.17900
C762        C  0.31167341  0.71612393  0.98725487     0.10400
S763        S  0.26359312  0.67890478  0.86921319    -0.32900
S764        S  0.33075025  0.72843705  0.03350641    -0.32900
H765        H  0.35725874  0.73784441  0.01622789     0.28500
H766        H  0.25693565  0.65125419  0.87770323     0.28400
H767        H  0.31401572  0.72873025  0.88689389     0.19000
H768        H  0.27843256  0.68080554  0.01705187     0.19000
C769        C  0.03139938  0.49070936  0.15209205    -0.06800
C770        C  0.00601239  0.47369654  0.13231508    -0.17900
C771        C  0.98052310  0.45977424  0.15326463     0.10400
C772        C  0.97986548  0.46359903  0.19528011    -0.06700
C773        C  0.00546715  0.47887629  0.21535398    -0.17900
C774        C  0.03093839  0.49257713  0.19451212     0.10400
S775        S  0.94982240  0.43741970  0.12422778    -0.32900
S776        S  0.06151147  0.51435835  0.22401751    -0.32900
H777        H  0.06968399  0.53827243  0.20007567     0.28500
H778        H  0.93746092  0.41672208  0.15420051     0.28400
H779        H  0.00595324  0.47134126  0.10008702     0.19000
H780        H  0.00564679  0.48198737  0.24741259     0.19000
C781        C  0.14673695  0.57290849  0.82621279    -0.06800
C782        C  0.16841653  0.59592459  0.80567776    -0.17900
C783        C  0.17129820  0.59606878  0.76394056     0.10400
C784        C  0.15249436  0.57232833  0.74135799    -0.06700
C785        C  0.13066439  0.54942491  0.76164422    -0.17900
C786        C  0.12775860  0.54922285  0.80340762     0.10400
S787        S  0.19852823  0.62792692  0.74145943    -0.32900
S788        S  0.10008266  0.51740807  0.82525709    -0.32900
H789        H  0.11754794  0.51560156  0.85425797     0.28500
H790        H  0.18179260  0.62769556  0.70960079     0.28400
H791        H  0.18298739  0.61446809  0.82212213     0.19000
H792        H  0.11612225  0.53100192  0.74492420     0.19000
C793        C  0.15786479  0.58095664  0.24309430    -0.06800
C794        C  0.13167209  0.57503048  0.25831241    -0.17900
C795        C  0.12714775  0.57642655  0.29942590     0.10400
C796        C  0.14929746  0.58357375  0.32655466    -0.06700
C797        C  0.17574880  0.59047644  0.31131932    -0.17900
C798        C  0.18035828  0.58954177  0.27022679     0.10400
S799        S  0.09334513  0.57016970  0.31632478    -0.32900
S800        S  0.21511113  0.59834445  0.25494844    -0.32900
H801        H  0.21949132  0.62217051  0.23340854     0.28500
H802        H  0.08160285  0.56814517  0.27829909     0.28400
H803        H  0.11462297  0.56948797  0.23771972     0.19000
H804        H  0.19302008  0.59625883  0.33171507     0.19000
C805        C  0.02195550  0.53295764  0.94596313    -0.06800
C806        C  0.02378130  0.53631977  0.90394814    -0.17900
C807        C  0.99996163  0.52657526  0.88001066     0.10400
C808        C  0.97317249  0.51229187  0.89790243    -0.06700
C809        C  0.97129433  0.51096740  0.93999679    -0.17900
C810        C  0.99514808  0.52114445  0.96424866     0.10400
S811        S  0.00534746  0.53325204  0.82692501    -0.32900
S812        S  0.99020113  0.51707125  0.01800688    -0.32900
H813        H  0.96150622  0.50830447  0.01880049     0.28500
H814        H  0.98207108  0.53681527  0.82164305     0.28400
H815        H  0.04401972  0.54627180  0.88920139     0.19000
H816        H  0.95085471  0.50032786  0.95405270     0.19000
C817        C  0.40131125  0.72540095  0.79506546    -0.06800
C818        C  0.42674035  0.72568387  0.79814909    -0.17900
C819        C  0.42765220  0.70077668  0.79772387     0.10400
C820        C  0.40265093  0.67478418  0.79335316    -0.06700
C821        C  0.37731495  0.67467322  0.78869542    -0.17900
C822        C  0.37635171  0.69956265  0.79001787     0.10400
S823        S  0.46139486  0.70353702  0.80178497    -0.32900
S824        S  0.34254843  0.69696137  0.78691537    -0.32900
H825        H  0.35240807  0.72431447  0.77253472     0.28500
H826        H  0.45464986  0.68874070  0.83829694     0.28400
H827        H  0.44588812  0.74535923  0.80324601     0.19000
H828        H  0.35803183  0.65497233  0.78455293     0.19000
C829        C  0.27133464  0.59413242  0.61158663    -0.06800
C830        C  0.28679681  0.61188454  0.64286878    -0.17900
C831        C  0.31160143  0.61343174  0.65583170     0.10400
C832        C  0.32083464  0.59624927  0.63747925    -0.06700
C833        C  0.30524172  0.57853369  0.60601849    -0.17900
C834        C  0.28053820  0.57712796  0.59314681     0.10400
S835        S  0.33198071  0.63883288  0.69394986    -0.32900
S836        S  0.26118592  0.55257818  0.55389641    -0.32900
H837        H  0.23462900  0.54607148  0.56819393     0.28500
H838        H  0.31291884  0.64800113  0.70232525     0.28400
H839        H  0.27992926  0.62535430  0.65602413     0.19000
H840        H  0.31182284  0.56500417  0.59222247     0.19000
C841        C  0.40014560  0.67167680  0.29688462    -0.06800
C842        C  0.42543901  0.69679686  0.30277216    -0.17900
C843        C  0.42628827  0.72257871  0.30484458     0.10400
C844        C  0.40130553  0.72352003  0.30160099    -0.06700
C845        C  0.37598739  0.69847061  0.29582813    -0.17900
C846        C  0.37511792  0.67267106  0.29334637     0.10400
S847        S  0.45972217  0.75348720  0.31369734    -0.32900
S848        S  0.34121472  0.64165860  0.28803880    -0.32900
H849        H  0.34752627  0.62425255  0.31120909     0.28500
H850        H  0.45408863  0.77182971  0.29176855     0.28400
H851        H  0.44482027  0.69643518  0.30491535     0.19000
H852        H  0.35658418  0.69886708  0.29506980     0.19000
C853        C  0.27704305  0.60333026  0.11247886    -0.06800
C854        C  0.27301836  0.58494481  0.14412364    -0.17900
C855        C  0.29437610  0.58009521  0.15615577     0.10400
C856        C  0.32062612  0.59411795  0.13648280    -0.06700
C857        C  0.32485791  0.61268881  0.10513055    -0.17900
C858        C  0.30363024  0.61792004  0.09347251     0.10400
S859        S  0.28649741  0.55505972  0.19603598    -0.32900
S860        S  0.31244058  0.64459653  0.05579038    -0.32900
H861        H  0.29588185  0.65478406  0.07252998     0.28500
H862        H  0.30408760  0.54533667  0.18188173     0.28400
H863        H  0.25272313  0.57333326  0.15856018     0.19000
H864        H  0.34527504  0.62428057  0.09103293     0.19000
C865        C  0.42637913  0.57564035  0.92375307    -0.06800
C866        C  0.41911532  0.55002264  0.94261897    -0.17900
C867        C  0.41282436  0.54569601  0.98360002     0.10400
C868        C  0.41442174  0.56768973  0.00727705    -0.06700
C869        C  0.42134571  0.59318278  0.98846504    -0.17900
C870        C  0.42764206  0.59754149  0.94745412     0.10400
S871        S  0.40145683  0.51110645  0.00309887    -0.32900
S872        S  0.43855964  0.63206136  0.92814994    -0.32900
H873        H  0.46097807  0.63381785  0.90568637     0.28500
H874        H  0.38075863  0.51052963  0.02839714     0.28400
H875        H  0.41745050  0.53275362  0.92506911     0.19000
H876        H  0.42293639  0.61035721  0.00618295     0.19000
C877        C  0.41318973  0.56705968  0.50771260    -0.06800
C878        C  0.42211596  0.59281513  0.48839454    -0.17900
C879        C  0.42809585  0.59624176  0.44725667     0.10400
C880        C  0.42452924  0.57318386  0.42403476    -0.06700
C881        C  0.41512797  0.54727959  0.44337659    -0.17900
C882        C  0.40903275  0.54386540  0.48449271     0.10400
S883        S  0.44170102  0.63103460  0.42709376    -0.32900
S884        S  0.39436304  0.50896982  0.50482639    -0.32900
H885        H  0.37616510  0.51152133  0.53179807     0.28500
H886        H  0.46260567  0.63022970  0.40394085     0.28400
H887        H  0.42555265  0.61082151  0.50581144     0.19000
H888        H  0.41159545  0.52919560  0.42609172     0.19000
C889        C  0.59725754  0.32396732  0.04500790    -0.06800
C890        C  0.57236232  0.29806777  0.04748251    -0.17900
C891        C  0.57276146  0.27290547  0.04921272     0.10400
C892        C  0.59859636  0.27346940  0.04902108    -0.06700
C893        C  0.62349689  0.29937224  0.04673095    -0.17900
C894        C  0.62313339  0.32452860  0.04468869     0.10400
S895        S  0.53972109  0.24085537  0.05436911    -0.32900
S896        S  0.65642020  0.35669028  0.04410413    -0.32900
H897        H  0.64715244  0.37264756  0.06502057     0.28500
H898        H  0.54699935  0.22492733  0.02962570     0.28400
H899        H  0.55241654  0.29738011  0.04717854     0.19000
H900        H  0.64341724  0.30006209  0.04840368     0.19000
C901        C  0.67507946  0.39775266  0.88301663    -0.06800
C902        C  0.69338749  0.41832051  0.85608504    -0.17900
C903        C  0.71932426  0.42106278  0.84685694     0.10400
C904        C  0.72717992  0.40277767  0.86467856    -0.06700
C905        C  0.70870696  0.38183163  0.89089258    -0.17900
C906        C  0.68257625  0.37877892  0.89967928     0.10400
S907        S  0.74184150  0.44872908  0.81275546    -0.32900
S908        S  0.65925606  0.34943106  0.93085938    -0.32900
H909        H  0.63450349  0.34534265  0.91284364     0.28500
H910        H  0.76699283  0.45404149  0.83077234     0.28400
H911        H  0.68803683  0.43314582  0.84355616     0.19000
H912        H  0.71412572  0.36697155  0.90310588     0.19000
C913        C  0.53968249  0.51213260  0.85597565    -0.06800
C914        C  0.51759991  0.51400493  0.87374405    -0.17900
C915        C  0.50290704  0.52463547  0.85303115     0.10400
C916        C  0.51048394  0.53417913  0.81285667    -0.06700
C917        C  0.53361302  0.53390640  0.79579242    -0.17900
C918        C  0.54855102  0.52361890  0.81694951     0.10400
S919        S  0.47283120  0.52290622  0.87783997    -0.32900
S920        S  0.57861048  0.52592251  0.79206708    -0.32900
H921        H  0.59545999  0.53502002  0.82653000     0.28500
H922        H  0.47755540  0.51589537  0.91641200     0.28400
H923        H  0.51058178  0.50553149  0.90349800     0.19000
H924        H  0.54010568  0.54170241  0.76556062     0.19000
C925        C  0.48736516  0.46387477  0.05735608    -0.06800
C926        C  0.49081794  0.46575812  0.09930917    -0.17900
C927        C  0.47779172  0.47637770  0.12390976     0.10400
C928        C  0.46086294  0.48613084  0.10669784    -0.06700
C929        C  0.45577445  0.48246581  0.06512807    -0.17900
C930        C  0.46860938  0.47147004  0.04035849     0.10400
S931        S  0.48413867  0.47697130  0.17694492    -0.32900
S932        S  0.46103777  0.46806609  0.98728668    -0.32900
H933        H  0.44096853  0.47660843  0.98793163     0.28500
H934        H  0.45626019  0.46796514  0.18782848     0.28400
H935        H  0.50444623  0.45949869  0.11346447     0.19000
H936        H  0.44259298  0.48944965  0.05149338     0.19000
C937        C  0.59862193  0.32628213  0.54273804    -0.06800
C938        C  0.60410973  0.31311415  0.51051850    -0.17900
C939        C  0.60509377  0.28841127  0.51597312     0.10400
C940        C  0.59949812  0.27586453  0.55419617    -0.06700
C941        C  0.59331934  0.28869612  0.58599026    -0.17900
C942        C  0.59357198  0.31387076  0.58106102     0.10400
S943        S  0.61489573  0.27487187  0.47373381    -0.32900
S944        S  0.58905676  0.32968906  0.62557438    -0.32900
H945        H  0.61098927  0.35677254  0.61606190     0.28500
H946        H  0.63241416  0.26820588  0.49584708     0.28400
H947        H  0.60807331  0.32232447  0.48083052     0.19000
H948        H  0.58902209  0.27943220  0.61567695     0.19000
C949        C  0.67841531  0.40282260  0.38045032    -0.06800
C950        C  0.67459475  0.37980373  0.35798048    -0.17900
C951        C  0.69697037  0.37528744  0.35052712     0.10400
C952        C  0.72406757  0.39460046  0.36497027    -0.06700
C953        C  0.72772077  0.41748532  0.38775083    -0.17900
C954        C  0.70530142  0.42183913  0.39542575     0.10400
S955        S  0.68924713  0.34365760  0.32434400    -0.32900
S956        S  0.71228940  0.45224700  0.42434886    -0.32900
H957        H  0.69144192  0.45606598  0.40643272     0.28500
H958        H  0.70922975  0.33980276  0.34495262     0.28400
H959        H  0.65379113  0.36446402  0.34802360     0.19000
H960        H  0.74839486  0.43273009  0.39827723     0.19000
C961        C  0.57722431  0.42615970  0.66943541    -0.06800
C962        C  0.56003814  0.43206222  0.69365338    -0.17900
C963        C  0.56192606  0.43246017  0.73543484     0.10400
C964        C  0.58213580  0.42763057  0.75409366    -0.06700
C965        C  0.59944836  0.42184898  0.72978294    -0.17900
C966        C  0.59746766  0.42137735  0.68791484     0.10400
S967        S  0.53677790  0.43773707  0.76283048    -0.32900
S968        S  0.62243014  0.41611504  0.65997201    -0.32900
H969        H  0.62659852  0.43566688  0.62976805     0.28500
H970        H  0.53085062  0.41650185  0.79110238     0.28400
H971        H  0.54424508  0.43549234  0.67993709     0.19000
H972        H  0.61529093  0.41847760  0.74341988     0.19000
C973        C  0.58272492  0.42905198  0.25302062    -0.06800
C974        C  0.55902945  0.42888764  0.23753501    -0.17900
C975        C  0.55273033  0.42493644  0.19660530     0.10400
C976        C  0.57075436  0.42155548  0.16996536    -0.06700
C977        C  0.59441047  0.42167935  0.18536118    -0.17900
C978        C  0.60084757  0.42585503  0.22622853     0.10400
S979        S  0.52069388  0.42309253  0.18064912    -0.32900
S980        S  0.63340247  0.42866243  0.24164143    -0.32900
H981        H  0.63995321  0.45015033  0.26956353     0.28500
H982        H  0.51457466  0.40290505  0.15074068     0.28400
H983        H  0.54475639  0.43096684  0.25767254     0.19000
H984        H  0.60868235  0.41968932  0.16510361     0.19000
C985        C  0.51424787  0.53705874  0.30972882    -0.06800
C986        C  0.51205312  0.53590098  0.35189359    -0.17900
C987        C  0.52554835  0.52518805  0.37554825     0.10400
C988        C  0.54106351  0.51431715  0.35669495    -0.06700
C989        C  0.54570665  0.51828991  0.31507834    -0.17900
C990        C  0.53319246  0.53007985  0.29173635     0.10400
S991        S  0.52250024  0.52564073  0.42952712    -0.32900
S992        S  0.54238209  0.53534191  0.23934445    -0.32900
H993        H  0.54502304  0.56205984  0.23799191     0.28500
H994        H  0.50816267  0.54066391  0.43115978     0.28400
H995        H  0.49878371  0.54242176  0.36653861     0.19000
H996        H  0.55857424  0.51136651  0.30008408     0.19000
C997        C  0.48966173  0.46596018  0.55906158    -0.06800
C998        C  0.48074871  0.48290626  0.54035697    -0.17900
C999        C  0.46853028  0.49568421  0.56212712     0.10400
C1000       C  0.46377015  0.49075346  0.60392481    -0.06700
C1001       C  0.47139253  0.47272303  0.62243189    -0.17900
C1002       C  0.48382669  0.46002803  0.60059027     0.10400
S1003       S  0.46252968  0.52047970  0.53507581    -0.32900
S1004       S  0.49130953  0.43627258  0.62768433    -0.32900
H1005       H  0.48432833  0.41734395  0.59570473     0.28500
H1006       H  0.47436086  0.54137979  0.56461540     0.28400
H1007       H  0.48518574  0.48803185  0.50884657     0.19000
H1008       H  0.46764060  0.46846997  0.65424164     0.19000
loop_ 
_geom_bond_atom_site_label_1 
_geom_bond_atom_site_label_2 
_geom_bond_distance 
_geom_bond_site_symmetry_2 
_ccdc_geom_bond_type 
O1           Mg3   2.127       .  S
O1           Mg9   2.140       .  S
O1           C36   1.240       .  S
C2           O15   1.235       .  S
C2           O39   1.266       .  A
C2           H41   1.081       .  S
Mg3          O32   2.153       .  S
Mg3          O47   2.353       .  S
Mg3          O43   2.258       .  S
Mg3          O14   2.320       .  S
O4          Mg46   2.150       .  S
O4          Mg29   2.124       .  S
O4           C25   1.234       .  S
O5           C36   1.272       .  A
O5          Mg29   2.297       .  S
C6            O8   1.273       .  A
C6           O20   1.277       .  A
C6          C988   1.496       .  S
O7           C35   1.272       .  A
O7           Mg9   2.301       .  S
O8          Mg40   2.263       .  S
Mg9          O15   2.096       .  S
Mg9          O23   2.199       .  S
Mg9          O11   2.263       .  S
C10          O48   1.279       .  A
C10          O16   1.274       .  A
C10         C997   1.496       .  S
O11          C18   1.269       .  A
H12          C25   1.082       .  S
C13          O27   1.237       .  S
C13          O28   1.271       .  A
C13          H38   1.081       .  S
O14          C37   1.273       .  A
O15         Mg29   2.135       .  S
O16         Mg46   2.296       .  S
C17          O30   1.276       .  A
C17          O22   1.278       .  A
C17         C961   1.483       .  S
C18          O45   1.274       .  A
C18         C937   1.483       .  S
Mg19         O26   2.174       .  S
Mg19         O27   2.161       .  S
Mg19         O20   2.319       .  S
Mg19         O21   2.285       .  S
Mg19         O48   2.304       .  S
O21          C25   1.267       .  A
O22         Mg29   2.315       .  S
O23          C42   1.263       .  A
O24          C44   1.278       .  A
O24         Mg40   2.327       .  S
O26         Mg40   2.159       .  S
O26          C37   1.237       .  S
O27         Mg46   2.154       .  S
O28         Mg40   2.303       .  S
Mg29         O45   2.278       .  S
O30         Mg46   2.270       .  S
H31          C36   1.081       .  S
O32         Mg40   2.148       .  S
O32          C35   1.238       .  S
H33          C35   1.081       .  S
H34          C37   1.081       .  S
O39         Mg46   2.278       .  S
C42          O47   1.279       .  A
C42         C949   1.469       .  S
O43          C44   1.272       .  A
C44         C973   1.485       .  S
O49         Mg51   2.134       .  S
O49         Mg57   2.140       .  S
O49          C84   1.239       .  S
C50          O63   1.235       .  S
C50          O87   1.267       .  A
C50          H89   1.080       .  S
Mg51         O80   2.160       .  S
Mg51         O95   2.344       .  S
Mg51         O91   2.270       .  S
Mg51         O62   2.315       .  S
O52         Mg94   2.150       .  S
O52         Mg77   2.137       .  S
O52          C73   1.236       .  S
O53          C84   1.272       .  A
O53         Mg77   2.298   1_556  S
C54          O56   1.270       .  A
C54          O68   1.279       .  A
C54         C913   1.500       .  S
O55          C83   1.272       .  A
O55         Mg57   2.303       .  S
O56         Mg88   2.267       .  S
Mg57         O63   2.096   1_556  S
Mg57         O71   2.194       .  S
Mg57         O59   2.262   1_556  S
C58          O96   1.276   1_554  A
C58          O64   1.275       .  A
C58         C925   1.502       .  S
O59          C66   1.268       .  A
H60          C73   1.081       .  S
C61          O75   1.236       .  S
C61          O76   1.271       .  A
C61          H86   1.081       .  S
O62          C85   1.273       .  A
O63         Mg77   2.144       .  S
O64         Mg94   2.291       .  S
C65          O78   1.275       .  A
C65          O70   1.279       .  A
C65         C976   1.481       .  S
C66          O93   1.276       .  A
C66         C889   1.477       .  S
Mg67         O74   2.168       .  S
Mg67         O75   2.150       .  S
Mg67         O68   2.322       .  S
Mg67         O69   2.295       .  S
Mg67         O96   2.302       .  S
O69          C73   1.269   1_556  A
O70         Mg77   2.321       .  S
O71          C90   1.263       .  A
O72          C92   1.274       .  A
O72         Mg88   2.301       .  S
O74         Mg88   2.156       .  S
O74          C85   1.237       .  S
O75         Mg94   2.155   1_556  S
O76         Mg88   2.306       .  S
Mg77         O93   2.299       .  S
O78         Mg94   2.271       .  S
H79          C84   1.081       .  S
O80         Mg88   2.148       .  S
O80          C83   1.238       .  S
H81          C83   1.082       .  S
H82          C85   1.082       .  S
O87         Mg94   2.278       .  S
C90          O95   1.279       .  A
C90         C901   1.473       .  S
O91          C92   1.273       .  A
C92         C964   1.487       .  S
O97         Mg99   2.132       .  S
O97        Mg105   2.143       .  S
O97         C132   1.239       .  S
C98         O111   1.236       .  S
C98         O135   1.268       .  A
C98         H137   1.081       .  S
Mg99        O128   2.158       .  S
Mg99        O143   2.331       .  S
Mg99        O139   2.264       .  S
Mg99        O110   2.313       .  S
O100       Mg142   2.145       .  S
O100       Mg125   2.129       .  S
O100        C121   1.234       .  S
O101        C132   1.272       .  A
O101       Mg125   2.297       .  S
C102        O104   1.273       .  A
C102        O116   1.278       .  A
C102        C928   1.499       .  S
O103        C131   1.273       .  A
O103       Mg105   2.307       .  S
O104       Mg136   2.265       .  S
Mg105       O111   2.096       .  S
Mg105       O119   2.198       .  S
Mg105       O107   2.277       .  S
C106        O144   1.277       .  A
C106        O112   1.277       .  A
C106        C985   1.500       .  S
O107        C114   1.270       .  A
H108        C121   1.080       .  S
C109        O123   1.236       .  S
C109        O124   1.271       .  A
C109        H134   1.082       .  S
O110        C133   1.272       .  A
O111       Mg125   2.141       .  S
O112       Mg142   2.302       .  S
C113        O126   1.278       .  A
C113        O118   1.278       .  A
C113        C880   1.491       .  S
C114        O141   1.276       .  A
C114        C841   1.484       .  S
Mg115       O122   2.166       .  S
Mg115       O123   2.160       .  S
Mg115       O116   2.326       .  S
Mg115       O117   2.289       .  S
Mg115       O144   2.296       .  S
O117        C121   1.268       .  A
O118       Mg125   2.313       .  S
O119        C138   1.263       .  A
O120        C140   1.277       .  A
O120       Mg136   2.321       .  S
O122       Mg136   2.160       .  S
O122        C133   1.236       .  S
O123       Mg142   2.166       .  S
O124       Mg136   2.305       .  S
Mg125       O141   2.301       .  S
O126       Mg142   2.290       .  S
H127        C132   1.081       .  S
O128       Mg136   2.151       .  S
O128        C131   1.239       .  S
H129        C131   1.081       .  S
H130        C133   1.082       .  S
O135       Mg142   2.280       .  S
C138        O143   1.277       .  A
C138        C856   1.467       .  S
O139        C140   1.272       .  A
C140        C868   1.488       .  S
O145       Mg147   2.129       .  S
O145       Mg153   2.138       .  S
O145        C180   1.238       .  S
C146        O159   1.236       .  S
C146        O183   1.268       .  A
C146        H185   1.081       .  S
Mg147       O176   2.161       .  S
Mg147       O191   2.345       .  S
Mg147       O187   2.267       .  S
Mg147       O158   2.319       .  S
O148       Mg190   2.139       .  S
O148       Mg173   2.132       .  S
O148        C169   1.235       .  S
O149        C180   1.272       .  A
O149       Mg173   2.297       .  S
C150        O152   1.271       .  A
C150        O164   1.280       .  A
C150       C1000   1.491       .  S
O151        C179   1.274       .  A
O151       Mg153   2.308       .  S
O152       Mg184   2.253       .  S
Mg153       O159   2.091       .  S
Mg153       O167   2.191       .  S
Mg153       O155   2.277       .  S
C154        O192   1.280       .  A
C154        O160   1.272       .  A
C154        C916   1.495       .  S
O155        C162   1.270       .  A
H156        C169   1.081       .  S
C157        O171   1.235       .  S
C157        O172   1.270       .  A
C157        H182   1.081       .  S
O158        C181   1.273       .  A
O159       Mg173   2.139       .  S
O160       Mg190   2.285       .  S
C161        O174   1.276       .  A
C161        O166   1.278       .  A
C161        C865   1.493       .  S
C162        O189   1.275       .  A
C162        C820   1.483       .  S
Mg163       O170   2.183       .  S
Mg163       O171   2.152       .  S
Mg163       O164   2.344       .  S
Mg163       O165   2.298       .  S
Mg163       O192   2.316       .  S
O165        C169   1.269       .  A
O166       Mg173   2.318       .  S
O167        C186   1.262       .  A
O168        C188   1.276       .  A
O168       Mg184   2.318       .  S
O170       Mg184   2.165       .  S
O170        C181   1.237       .  S
O171       Mg190   2.164       .  S
O172       Mg184   2.304       .  S
Mg173       O189   2.295       .  S
O174       Mg190   2.279       .  S
H175        C180   1.081       .  S
O176       Mg184   2.155       .  S
O176        C179   1.240       .  S
H177        C179   1.081       .  S
H178        C181   1.080       .  S
O183       Mg190   2.276       .  S
C186        O191   1.279       .  A
C186        C832   1.479       .  S
O187        C188   1.272       .  A
C188        C877   1.486       .  S
O193       Mg195   2.123       .  S
O193       Mg201   2.137       .  S
O193        C228   1.239       .  S
C194        O207   1.235       .  S
C194        O231   1.267       .  A
C194        H233   1.081       .  S
Mg195       O224   2.154       .  S
Mg195       O239   2.322       .  S
Mg195       O235   2.263       .  S
Mg195       O206   2.311       .  S
O196       Mg238   2.149       .  S
O196       Mg221   2.135       .  S
O196        C217   1.235       .  S
O197        C228   1.272       .  A
O197       Mg221   2.296   1_554  S
C198        O200   1.269       .  A
C198        O212   1.280       .  A
C198        C769   1.493       .  S
O199        C227   1.273       .  A
O199       Mg201   2.300       .  S
O200       Mg232   2.249       .  S
Mg201       O207   2.093   1_554  S
Mg201       O215   2.208       .  S
Mg201       O203   2.241   1_554  S
C202        O240   1.275   1_556  A
C202        O208   1.276       .  A
C202        C805   1.497       .  S
O203        C210   1.267       .  A
H204        C217   1.081       .  S
C205        O219   1.237       .  S
C205        O220   1.272       .  A
C205        H230   1.080       .  S
O206        C229   1.272       .  A
O207       Mg221   2.144       .  S
O208       Mg238   2.294       .  S
C209        O222   1.277       .  A
C209        O214   1.281       .  A
C209        C781   1.498       .  S
C210        O237   1.277       .  A
C210        C760   1.487       .  S
Mg211       O218   2.157       .  S
Mg211       O219   2.165       .  S
Mg211       O212   2.342       .  S
Mg211       O213   2.291       .  S
Mg211       O240   2.282       .  S
O213        C217   1.269   1_554  A
O214       Mg221   2.324       .  S
O215        C234   1.263       .  A
O216        C236   1.276       .  A
O216       Mg232   2.312       .  S
O218       Mg232   2.152       .  S
O218        C229   1.236       .  S
O219       Mg238   2.172   1_554  S
O220       Mg232   2.307       .  S
Mg221       O237   2.316       .  S
O222       Mg238   2.290       .  S
H223        C228   1.082       .  S
O224       Mg232   2.135       .  S
O224        C227   1.239       .  S
H225        C227   1.081       .  S
H226        C229   1.082       .  S
O231       Mg238   2.279       .  S
C234        O239   1.277       .  A
C234        C853   1.476       .  S
O235        C236   1.270       .  A
C236        C793   1.491       .  S
O241       Mg243   2.116       .  S
O241       Mg249   2.137       .  S
O241        C276   1.238       .  S
C242        O255   1.235       .  S
C242        O279   1.267       .  A
C242        H281   1.082       .  S
Mg243       O272   2.146       .  S
Mg243       O287   2.321       .  S
Mg243       O283   2.263       .  S
Mg243       O254   2.318       .  S
O244       Mg286   2.146       .  S
O244       Mg269   2.130       .  S
O244        C265   1.234       .  S
O245        C276   1.271       .  A
O245       Mg269   2.293       .  S
C246        O248   1.268       .  A
C246        O260   1.279       .  A
C246        C733   1.488       .  S
O247        C275   1.273       .  A
O247       Mg249   2.299       .  S
O248       Mg280   2.225       .  S
Mg249       O255   2.094       .  S
Mg249       O263   2.214       .  S
Mg249       O251   2.264       .  S
C250        O288   1.277       .  A
C250        O256   1.276       .  A
C250        C745   1.497       .  S
O251        C258   1.270       .  A
H252        C265   1.081       .  S
C253        O267   1.237       .  S
C253        O268   1.272       .  A
C253        H278   1.080       .  S
O254        C277   1.273       .  A
O255       Mg269   2.138       .  S
O256       Mg286   2.294       .  S
C257        O270   1.276       .  A
C257        O262   1.277       .  A
C257        C796   1.486       .  S
C258        O285   1.274       .  A
C258        C721   1.474       .  S
Mg259       O266   2.168       .  S
Mg259       O267   2.156       .  S
Mg259       O260   2.339       .  S
Mg259       O261   2.294       .  S
Mg259       O288   2.296       .  S
O261        C265   1.268       .  A
O262       Mg269   2.300       .  S
O263        C282   1.265       .  A
O264        C284   1.276       .  A
O264       Mg280   2.318       .  S
O266       Mg280   2.156       .  S
O266        C277   1.237       .  S
O267       Mg286   2.164       .  S
O268       Mg280   2.307       .  S
Mg269       O285   2.284       .  S
O270       Mg286   2.285       .  S
H271        C276   1.081       .  S
O272       Mg280   2.129       .  S
O272        C275   1.240       .  S
H273        C275   1.081       .  S
H274        C277   1.082       .  S
O279       Mg286   2.277       .  S
C282        O287   1.276       .  A
C282        C829   1.467       .  S
O283        C284   1.271       .  A
C284        C784   1.490       .  S
O289       Mg291   2.127       .  S
O289       Mg297   2.130       .  S
O289        C324   1.240       .  S
C290        O303   1.235       .  S
C290        O327   1.267       .  A
C290        H329   1.080       .  S
Mg291       O320   2.149       .  S
Mg291       O335   2.354       .  S
Mg291       O331   2.264       .  S
Mg291       O302   2.314       .  S
O292       Mg334   2.145       .  S
O292       Mg317   2.120       .  S
O292        C313   1.235       .  S
O293        C324   1.273       .  A
O293       Mg317   2.304       .  S
C294        O296   1.273       .  A
C294        O308   1.277       .  A
C294        C748   1.494       .  S
O295        C323   1.273       .  A
O295       Mg297   2.307       .  S
O296       Mg328   2.262       .  S
Mg297       O303   2.103       .  S
Mg297       O311   2.210       .  S
Mg297       O299   2.247       .  S
C298        O336   1.279       .  A
C298        O304   1.274       .  A
C298        C772   1.496       .  S
O299        C306   1.266       .  A
H300        C313   1.081       .  S
C301        O315   1.236       .  S
C301        O316   1.270       .  A
C301        H326   1.080       .  S
O302        C325   1.273       .  A
O303       Mg317   2.140       .  S
O304       Mg334   2.289       .  S
C305        O318   1.277       .  A
C305        O310   1.278       .  A
C305        C709   1.492       .  S
C306        O333   1.274       .  A
C306        C688   1.477       .  S
Mg307       O314   2.168       .  S
Mg307       O315   2.164       .  S
Mg307       O308   2.315       .  S
Mg307       O309   2.284       .  S
Mg307       O336   2.303       .  S
O309        C313   1.267       .  A
O310       Mg317   2.318       .  S
O311        C330   1.263       .  A
O312        C332   1.278       .  A
O312       Mg328   2.320       .  S
O314       Mg328   2.164       .  S
O314        C325   1.237       .  S
O315       Mg334   2.153       .  S
O316       Mg328   2.298       .  S
Mg317       O333   2.290       .  S
O318       Mg334   2.281       .  S
H319        C324   1.082       .  S
O320       Mg328   2.141       .  S
O320        C323   1.239       .  S
H321        C323   1.081       .  S
H322        C325   1.082       .  S
O327       Mg334   2.281       .  S
C330        O335   1.280       .  A
C330        C952   1.479       .  S
O331        C332   1.272       .  A
C332        C697   1.493       .  S
O337       Mg339   2.124       .  S
O337       Mg345   2.138       .  S
O337        C372   1.239       .  S
C338        O351   1.235       .  S
C338        O375   1.266       .  A
C338        H377   1.081       .  S
Mg339       O368   2.153       .  S
Mg339       O383   2.339       .  S
Mg339       O379   2.269       .  S
Mg339       O350   2.318       .  S
O340       Mg382   2.145       .  S
O340       Mg365   2.126       .  S
O340        C361   1.234       .  S
O341        C372   1.272       .  A
O341       Mg365   2.296       .  S
C342        O344   1.270       .  A
C342        O356   1.278       .  A
C342        C808   1.489       .  S
O343        C371   1.273       .  A
O343       Mg345   2.302       .  S
O344       Mg376   2.243       .  S
Mg345       O351   2.092       .  S
Mg345       O359   2.195       .  S
Mg345       O347   2.260       .  S
C346        O384   1.276       .  A
C346        O352   1.275       .  A
C346        C736   1.497       .  S
O347        C354   1.268       .  A
H348        C361   1.082       .  S
C349        O363   1.237       .  S
C349        O364   1.271       .  A
C349        H374   1.080       .  S
O350        C373   1.273       .  A
O351       Mg365   2.135       .  S
O352       Mg382   2.289       .  S
C353        O366   1.276       .  A
C353        O358   1.280       .  A
C353        C700   1.490       .  S
C354        O381   1.277       .  A
C354        C676   1.483       .  S
Mg355       O362   2.169       .  S
Mg355       O363   2.158       .  S
Mg355       O356   2.325       .  S
Mg355       O357   2.289       .  S
Mg355       O384   2.293       .  S
O357        C361   1.268       .  A
O358       Mg365   2.319       .  S
O359        C378   1.262       .  A
O360        C380   1.275       .  A
O360       Mg376   2.312       .  S
O362       Mg376   2.159       .  S
O362        C373   1.237       .  S
O363       Mg382   2.161       .  S
O364       Mg376   2.304       .  S
Mg365       O381   2.302       .  S
O366       Mg382   2.278       .  S
H367        C372   1.082       .  S
O368       Mg376   2.137       .  S
O368        C371   1.240       .  S
H369        C371   1.081       .  S
H370        C373   1.083       .  S
O375       Mg382   2.274       .  S
C378        O383   1.278       .  A
C378        C904   1.465       .  S
O379        C380   1.273       .  A
C380        C712   1.486       .  S
O385       Mg387   2.127       .  S
O385       Mg393   2.127       .  S
O385        C420   1.240       .  S
C386        O399   1.236       .  S
C386        O423   1.267       .  A
C386        H425   1.082       .  S
Mg387       O416   2.145       .  S
Mg387       O431   2.351       .  S
Mg387       O427   2.267   1_554  S
Mg387       O398   2.317       .  S
O388       Mg430   2.141       .  S
O388       Mg413   2.112       .  S
O388        C409   1.234       .  S
O389        C420   1.274       .  A
O389       Mg413   2.304       .  S
C390        O392   1.271       .  A
C390        O404   1.278       .  A
C390        C664   1.493       .  S
O391        C419   1.274       .  A
O391       Mg393   2.310       .  S
O392       Mg424   2.251       .  S
Mg393       O399   2.105       .  S
Mg393       O407   2.216       .  S
Mg393       O395   2.256       .  S
C394        O432   1.278       .  A
C394        O400   1.274       .  A
C394        C649   1.486       .  S
O395        C402   1.267       .  A
H396        C409   1.081       .  S
C397        O411   1.237       .  S
C397        O412   1.271       .  A
C397        H422   1.081       .  S
O398        C421   1.273       .  A
O399       Mg413   2.138       .  S
O400       Mg430   2.288       .  S
C401        O414   1.278       .  A
C401        O406   1.278       .  A
C401        C637   1.491       .  S
C402        O429   1.274       .  A
C402        C685   1.476       .  S
Mg403       O410   2.161       .  S
Mg403       O411   2.166       .  S
Mg403       O404   2.324       .  S
Mg403       O405   2.281       .  S
Mg403       O432   2.280       .  S
O405        C409   1.267       .  A
O406       Mg413   2.318       .  S
O407        C426   1.264       .  A
O408        C428   1.275       .  A
O408       Mg424   2.313   1_556  S
O410       Mg424   2.156       .  S
O410        C421   1.237       .  S
O411       Mg430   2.157       .  S
O412       Mg424   2.299       .  S
Mg413       O429   2.280       .  S
O414       Mg430   2.288       .  S
H415        C420   1.081       .  S
O416       Mg424   2.140       .  S
O416        C419   1.239       .  S
H417        C419   1.081       .  S
H418        C421   1.082       .  S
O423       Mg430   2.280       .  S
C426        O431   1.278       .  A
C426        C892   1.472       .  S
O427        C428   1.273       .  A
C428        C625   1.488       .  S
O433       Mg435   2.137       .  S
O433       Mg441   2.120       .  S
O433        C468   1.239       .  S
C434        O447   1.234       .  S
C434        O471   1.266       .  A
C434        H473   1.081       .  S
Mg435       O464   2.148       .  S
Mg435       O479   2.361       .  S
Mg435       O475   2.276       .  S
Mg435       O446   2.324       .  S
O436       Mg478   2.144       .  S
O436       Mg461   2.127       .  S
O436        C457   1.235       .  S
O437        C468   1.272       .  A
O437       Mg461   2.300       .  S
C438        O440   1.268       .  A
C438        O452   1.279       .  A
C438        C613   1.485       .  S
O439        C467   1.274       .  A
O439       Mg441   2.312       .  S
O440       Mg472   2.236       .  S
Mg441       O447   2.086       .  S
Mg441       O455   2.180       .  S
Mg441       O443   2.248       .  S
C442        O480   1.276       .  A
C442        O448   1.272       .  A
C442        C601   1.475       .  S
O443        C450   1.266       .  A
H444        C457   1.080       .  S
C445        O459   1.235       .  S
C445        O460   1.271       .  A
C445        H470   1.080       .  S
O446        C469   1.274       .  A
O447       Mg461   2.138       .  S
O448       Mg478   2.267       .  S
C449        O462   1.278       .  A
C449        O454   1.278       .  A
C449        C628   1.495       .  S
C450        O477   1.276       .  A
C450        C673   1.482       .  S
Mg451       O458   2.177       .  S
Mg451       O459   2.164       .  S
Mg451       O452   2.344       .  S
Mg451       O453   2.293       .  S
Mg451       O480   2.293       .  S
O453        C457   1.269       .  A
O454       Mg461   2.317       .  S
O455        C474   1.261       .  A
O456        C476   1.274       .  A
O456       Mg472   2.308       .  S
O458       Mg472   2.157       .  S
O458        C469   1.238       .  S
O459       Mg478   2.172       .  S
O460       Mg472   2.307       .  S
Mg461       O477   2.309       .  S
O462       Mg478   2.286       .  S
H463        C468   1.081       .  S
O464       Mg472   2.136       .  S
O464        C467   1.239       .  S
H465        C467   1.081       .  S
H466        C469   1.082       .  S
O471       Mg478   2.274       .  S
C474        O479   1.279       .  A
C474        C940   1.480       .  S
O475        C476   1.273       .  A
C476        C640   1.486       .  S
O481       Mg483   2.128       .  S
O481       Mg489   2.138       .  S
O481        C516   1.241       .  S
C482        O495   1.235       .  S
C482        O519   1.267       .  A
C482        H521   1.080       .  S
Mg483       O512   2.148       .  S
Mg483       O527   2.357       .  S
Mg483       O523   2.274       .  S
Mg483       O494   2.326       .  S
O484       Mg526   2.149       .  S
O484       Mg509   2.123       .  S
O484        C505   1.234       .  S
O485        C516   1.274       .  A
O485       Mg509   2.300       .  S
C486        O488   1.267       .  A
C486        O500   1.278       .  A
C486        C652   1.480       .  S
O487        C515   1.272       .  A
O487       Mg489   2.300       .  S
O488       Mg520   2.230       .  S
Mg489       O495   2.105       .  S
Mg489       O503   2.223       .  S
Mg489       O491   2.241       .  S
C490        O528   1.279       .  A
C490        O496   1.275       .  A
C490        C616   1.490       .  S
O491        C498   1.267       .  A
H492        C505   1.081       .  S
C493        O507   1.237       .  S
C493        O508   1.272       .  A
C493        H518   1.081       .  S
O494        C517   1.275       .  A
O495       Mg509   2.144       .  S
O496       Mg526   2.294       .  S
C497        O510   1.277       .  A
C497        O502   1.278       .  A
C497        C577   1.484       .  S
C498        O525   1.274       .  A
C498        C724   1.477       .  S
Mg499       O506   2.184       .  S
Mg499       O507   2.163       .  S
Mg499       O500   2.326       .  S
Mg499       O501   2.285       .  S
Mg499       O528   2.304       .  S
O501        C505   1.267       .  A
O502       Mg509   2.309       .  S
O503        C522   1.265       .  A
O504        C524   1.276       .  A
O504       Mg520   2.321       .  S
O506       Mg520   2.155       .  S
O506        C517   1.238       .  S
O507       Mg526   2.162       .  S
O508       Mg520   2.306       .  S
Mg509       O525   2.293       .  S
O510       Mg526   2.286       .  S
H511        C516   1.081       .  S
O512       Mg520   2.133       .  S
O512        C515   1.238       .  S
H513        C515   1.082       .  S
H514        C517   1.081       .  S
O519       Mg526   2.279       .  S
C522        O527   1.280       .  A
C522        C844   1.474       .  S
O523        C524   1.273       .  A
C524        C589   1.488       .  S
O529       Mg531   2.125       .  S
O529       Mg537   2.125       .  S
O529        C564   1.240       .  S
C530        O543   1.235       .  S
C530        O567   1.267       .  A
C530        H569   1.081       .  S
Mg531       O560   2.152       .  S
Mg531       O575   2.359       .  S
Mg531       O571   2.266       .  S
Mg531       O542   2.321       .  S
O532       Mg574   2.143       .  S
O532       Mg557   2.126       .  S
O532        C553   1.235       .  S
O533        C564   1.273       .  A
O533       Mg557   2.302       .  S
C534        O536   1.268       .  A
C534        O548   1.277       .  A
C534        C604   1.483       .  S
O535        C563   1.274       .  A
O535       Mg537   2.307       .  S
O536       Mg568   2.244       .  S
Mg537       O543   2.104       .  S
Mg537       O551   2.209       .  S
Mg537       O539   2.250       .  S
C538        O576   1.276       .  A
C538        O544   1.276       .  A
C538        C661   1.500       .  S
O539        C546   1.267       .  A
H540        C553   1.081       .  S
C541        O555   1.238       .  S
C541        O556   1.273       .  A
C541        H566   1.081       .  S
O542        C565   1.273       .  A
O543       Mg557   2.141       .  S
O544       Mg574   2.296       .  S
C545        O558   1.276       .  A
C545        O550   1.280       .  A
C545        C592   1.483       .  S
C546        O573   1.275       .  A
C546        C757   1.477       .  S
Mg547       O554   2.170       .  S
Mg547       O555   2.151       .  S
Mg547       O548   2.312       .  S
Mg547       O549   2.288       .  S
Mg547       O576   2.296       .  S
O549        C553   1.268       .  A
O550       Mg557   2.327   1_554  S
O551        C570   1.263       .  A
O552        C572   1.275       .  A
O552       Mg568   2.312       .  S
O554       Mg568   2.149       .  S
O554        C565   1.237       .  S
O555       Mg574   2.159       .  S
O556       Mg568   2.312       .  S
Mg557       O573   2.298       .  S
O558       Mg574   2.278   1_554  S
H559        C564   1.082       .  S
O560       Mg568   2.139       .  S
O560        C563   1.239       .  S
H561        C563   1.081       .  S
H562        C565   1.082       .  S
O567       Mg574   2.281       .  S
C570        O575   1.279       .  A
C570        C817   1.470       .  S
O571        C572   1.273       .  A
C572        C580   1.489       .  S
C577        C578   1.404       .  A
C577        C582   1.415       .  A
C578        H587   1.084       .  S
C578        C579   1.402       .  A
C579        C580   1.419       .  A
C579        S583   1.804       .  S
C580        C581   1.405       .  A
C581        H588   1.082       .  S
C581        C582   1.404       .  A
C582        S584   1.809       .  S
S583        H586   1.408       .  S
S584        H585   1.406       .  S
C589        C590   1.406       .  A
C589        C594   1.416       .  A
C590        H599   1.082       .  S
C590        C591   1.405       .  A
C591        C592   1.413       .  A
C591        S595   1.809       .  S
C592        C593   1.404       .  A
C593        H600   1.084       .  S
C593        C594   1.402       .  A
C594        S596   1.803       .  S
S595        H598   1.407       .  S
S596        H597   1.407       .  S
C601        C602   1.402       .  A
C601        C606   1.415       .  A
C602        H611   1.084       .  S
C602        C603   1.404   1_545  A
C603        C604   1.419       .  A
C603        S607   1.802       .  S
C604        C605   1.403       .  A
C605        H612   1.084       .  S
C605        C606   1.392   1_565  A
C606        S608   1.807       .  S
S607        H610   1.407       .  S
S608        H609   1.408       .  S
C613        C614   1.402       .  A
C613        C618   1.418       .  A
C614        H623   1.084       .  S
C614        C615   1.405   1_545  A
C615        C616   1.420       .  A
C615        S619   1.803       .  S
C616        C617   1.403   1_565  A
C617        H624   1.082       .  S
C617        C618   1.403       .  A
C618        S620   1.812       .  S
S619        H622   1.407       .  S
S620        H621   1.406       .  S
C625        C626   1.405       .  A
C625        C630   1.416       .  A
C626        H635   1.084       .  S
C626        C627   1.402       .  A
C627        C628   1.419       .  A
C627        S631   1.803       .  S
C628        C629   1.408       .  A
C629        H636   1.084       .  S
C629        C630   1.401       .  A
C630        S632   1.803       .  S
S631        H634   1.408       .  S
S632        H633   1.407       .  S
C637        C638   1.406       .  A
C637        C642   1.418       .  A
C638        H647   1.084       .  S
C638        C639   1.401       .  A
C639        C640   1.415       .  A
C639        S643   1.804       .  S
C640        C641   1.404       .  A
C641        H648   1.084       .  S
C641        C642   1.403       .  A
C642        S644   1.803       .  S
S643        H646   1.407       .  S
S644        H645   1.407       .  S
C649        C650   1.403   1_545  A
C649        C654   1.419       .  A
C650        H659   1.084       .  S
C650        C651   1.395       .  A
C651        C652   1.418       .  A
C651        S655   1.804       .  S
C652        C653   1.402       .  A
C653        H660   1.084       .  S
C653        C654   1.402   1_565  A
C654        S656   1.803       .  S
S655        H658   1.408       .  S
S656        H657   1.408       .  S
C661        C662   1.412   1_556  A
C661        C666   1.418   1_565  A
C662        H671   1.083       .  S
C662        C663   1.401       .  A
C663        C664   1.414   1_565  A
C663        S667   1.804       .  S
C664        C665   1.409   1_554  A
C665        H672   1.083       .  S
C665        C666   1.402       .  A
C666        S668   1.802       .  S
S667        H670   1.408   1_565  S
S668        H669   1.408   1_545  S
C673        C674   1.399       .  A
C673        C678   1.421       .  A
C674        H683   1.084       .  S
C674        C675   1.400       .  A
C675        C676   1.422       .  A
C675        S679   1.801       .  S
C676        C677   1.398       .  A
C677        H684   1.084       .  S
C677        C678   1.399       .  A
C678        S680   1.802       .  S
S679        H682   1.405       .  S
S680        H681   1.405       .  S
C685        C686   1.398       .  A
C685        C690   1.420       .  A
C686        H695   1.084       .  S
C686        C687   1.396       .  A
C687        C688   1.420       .  A
C687        S691   1.801       .  S
C688        C689   1.398       .  A
C689        H696   1.084       .  S
C689        C690   1.397       .  A
C690        S692   1.801       .  S
S691        H694   1.405       .  S
S692        H693   1.405       .  S
C697        C698   1.407       .  A
C697        C702   1.418       .  A
C698        H707   1.083       .  S
C698        C699   1.405       .  A
C699        C700   1.416       .  A
C699        S703   1.809       .  S
C700        C701   1.405       .  A
C701        H708   1.084       .  S
C701        C702   1.401       .  A
C702        S704   1.803       .  S
S703        H706   1.407       .  S
S704        H705   1.407       .  S
C709        C710   1.407       .  A
C709        C714   1.418       .  A
C710        H719   1.084       .  S
C710        C711   1.401       .  A
C711        C712   1.415   1_554  A
C711        S715   1.804   1_554  S
C712        C713   1.405   1_556  A
C713        H720   1.084   1_554  S
C713        C714   1.402       .  A
C714        S716   1.803       .  S
S715        H718   1.407       .  S
S716        H717   1.408       .  S
C721        C722   1.409       .  A
C721        C726   1.408       .  A
C722        H731   1.084       .  S
C722        C723   1.399       .  A
C723        C724   1.410       .  A
C723        S727   1.802       .  S
C724        C725   1.410       .  A
C725        H732   1.084       .  S
C725        C726   1.396       .  A
C726        S728   1.803       .  S
S727        H730   1.407       .  S
S728        H729   1.407       .  S
C733        C734   1.408       .  A
C733        C738   1.410       .  A
C734        H743   1.084       .  S
C734        C735   1.398       .  A
C735        C736   1.417   1_455  A
C735        S739   1.802       .  S
C736        C737   1.414       .  A
C737        H744   1.082       .  S
C737        C738   1.405   1_655  A
C738        S740   1.807   1_455  S
S739        H742   1.407   1_455  S
S740        H741   1.406       .  S
C745        C746   1.410       .  A
C745        C750   1.417   1_455  A
C746        H755   1.083       .  S
C746        C747   1.399   1_455  A
C747        C748   1.416       .  A
C747        S751   1.804   1_655  S
C748        C749   1.410       .  A
C749        H756   1.084       .  S
C749        C750   1.403       .  A
C750        S752   1.802       .  S
S751        H754   1.408   1_455  S
S752        H753   1.408   1_655  S
C757        C758   1.410       .  A
C757        C762   1.406       .  A
C758        H767   1.084       .  S
C758        C759   1.401       .  A
C759        C760   1.411       .  A
C759        S763   1.801       .  S
C760        C761   1.413       .  A
C761        H768   1.084   1_556  S
C761        C762   1.398       .  A
C762        S764   1.803   1_556  S
S763        H766   1.407       .  S
S764        H765   1.407       .  S
C769        C770   1.404       .  A
C769        C774   1.421       .  A
C770        H779   1.084       .  S
C770        C771   1.403   1_455  A
C771        C772   1.422       .  A
C771        S775   1.803       .  S
C772        C773   1.404   1_655  A
C773        H780   1.083       .  S
C773        C774   1.400       .  A
C774        S776   1.801       .  S
S775        H778   1.408       .  S
S776        H777   1.408       .  S
C781        C782   1.408       .  A
C781        C786   1.421       .  A
C782        H791   1.084       .  S
C782        C783   1.401       .  A
C783        C784   1.416       .  A
C783        S787   1.803       .  S
C784        C785   1.405       .  A
C785        H792   1.084       .  S
C785        C786   1.402       .  A
C786        S788   1.802       .  S
S787        H790   1.408       .  S
S788        H789   1.408       .  S
C793        C794   1.407       .  A
C793        C798   1.417       .  A
C794        H803   1.081       .  S
C794        C795   1.403       .  A
C795        C796   1.413       .  A
C795        S799   1.809       .  S
C796        C797   1.406       .  A
C797        H804   1.084       .  S
C797        C798   1.400       .  A
C798        S800   1.801       .  S
S799        H802   1.406       .  S
S800        H801   1.408       .  S
C805        C806   1.411       .  A
C805        C810   1.420   1_455  A
C806        H815   1.084       .  S
C806        C807   1.399   1_455  A
C807        C808   1.411       .  A
C807        S811   1.803   1_655  S
C808        C809   1.408       .  A
C809        H816   1.082       .  S
C809        C810   1.405       .  A
C810        S812   1.811   1_556  S
S811        H814   1.407   1_455  S
S812        H813   1.407       .  S
C817        C818   1.402       .  A
C817        C822   1.411       .  A
C818        H827   1.084       .  S
C818        C819   1.401       .  A
C819        C820   1.414       .  A
C819        S823   1.799       .  S
C820        C821   1.407       .  A
C821        H828   1.084       .  S
C821        C822   1.402       .  A
C822        S824   1.804       .  S
S823        H826   1.407       .  S
S824        H825   1.406       .  S
C829        C830   1.396       .  A
C829        C834   1.414       .  A
C830        H839   1.083       .  S
C830        C831   1.400       .  A
C831        C832   1.422       .  A
C831        S835   1.812       .  S
C832        C833   1.401       .  A
C833        H840   1.084       .  S
C833        C834   1.397       .  A
C834        S836   1.804       .  S
S835        H838   1.407       .  S
S836        H837   1.406       .  S
C841        C842   1.404       .  A
C841        C846   1.417       .  A
C842        H851   1.084       .  S
C842        C843   1.402       .  A
C843        C844   1.412       .  A
C843        S847   1.803       .  S
C844        C845   1.402       .  A
C845        H852   1.084       .  S
C845        C846   1.403       .  A
C846        S848   1.804       .  S
S847        H850   1.405       .  S
S848        H849   1.407       .  S
C853        C854   1.401       .  A
C853        C858   1.419       .  A
C854        H863   1.084       .  S
C854        C855   1.395       .  A
C855        C856   1.414       .  A
C855        S859   1.805       .  S
C856        C857   1.398       .  A
C857        H864   1.084       .  S
C857        C858   1.398       .  A
C858        S860   1.805       .  S
S859        H862   1.407       .  S
S860        H861   1.407       .  S
C865        C866   1.408       .  A
C865        C870   1.418       .  A
C866        H875   1.084       .  S
C866        C867   1.401       .  A
C867        C868   1.415   1_556  A
C867        S871   1.804   1_556  S
C868        C869   1.406   1_554  A
C869        H876   1.084   1_556  S
C869        C870   1.402       .  A
C870        S872   1.803       .  S
S871        H874   1.407       .  S
S872        H873   1.407       .  S
C877        C878   1.404       .  A
C877        C882   1.415       .  A
C878        H887   1.084       .  S
C878        C879   1.402       .  A
C879        C880   1.418       .  A
C879        S883   1.803       .  S
C880        C881   1.407       .  A
C881        H888   1.084       .  S
C881        C882   1.402       .  A
C882        S884   1.804       .  S
S883        H886   1.407       .  S
S884        H885   1.407       .  S
C889        C890   1.403       .  A
C889        C894   1.415       .  A
C890        H899   1.084       .  S
C890        C891   1.401       .  A
C891        C892   1.413       .  A
C891        S895   1.802       .  S
C892        C893   1.402       .  A
C893        H900   1.084       .  S
C893        C894   1.400       .  A
C894        S896   1.804       .  S
S895        H898   1.404       .  S
S896        H897   1.407       .  S
C901        C902   1.400       .  A
C901        C906   1.419       .  A
C902        H911   1.084       .  S
C902        C903   1.397       .  A
C903        C904   1.415       .  A
C903        S907   1.804       .  S
C904        C905   1.397       .  A
C905        H912   1.084       .  S
C905        C906   1.398       .  A
C906        S908   1.805       .  S
S907        H910   1.406       .  S
S908        H909   1.407       .  S
C913        C914   1.405       .  A
C913        C918   1.422       .  A
C914        H923   1.082       .  S
C914        C915   1.401       .  A
C915        C916   1.423       .  A
C915        S919   1.814       .  S
C916        C917   1.405       .  A
C917        H924   1.083       .  S
C917        C918   1.406       .  A
C918        S920   1.802       .  S
S919        H922   1.406       .  S
S920        H921   1.408       .  S
C925        C926   1.411       .  A
C925        C930   1.419       .  A
C926        H935   1.083       .  S
C926        C927   1.399       .  A
C927        C928   1.416       .  A
C927        S931   1.803       .  S
C928        C929   1.411       .  A
C929        H936   1.082       .  S
C929        C930   1.409       .  A
C930        S932   1.810   1_554  S
S931        H934   1.407       .  S
S932        H933   1.407       .  S
C937        C938   1.414       .  A
C937        C942   1.410       .  A
C938        H947   1.084       .  S
C938        C939   1.403       .  A
C939        C940   1.408       .  A
C939        S943   1.801       .  S
C940        C941   1.410       .  A
C941        H948   1.084       .  S
C941        C942   1.392       .  A
C942        S944   1.804       .  S
S943        H946   1.407       .  S
S944        H945   1.408       .  S
C949        C950   1.399       .  A
C949        C954   1.414       .  A
C950        H959   1.084       .  S
C950        C951   1.401       .  A
C951        C952   1.419       .  A
C951        S955   1.803       .  S
C952        C953   1.401       .  A
C953        H960   1.084       .  S
C953        C954   1.399       .  A
C954        S956   1.804       .  S
S955        H958   1.407       .  S
S956        H957   1.406       .  S
C961        C962   1.403       .  A
C961        C966   1.415       .  A
C962        H971   1.084       .  S
C962        C963   1.398       .  A
C963        C964   1.418       .  A
C963        S967   1.804       .  S
C964        C965   1.407       .  A
C965        H972   1.084       .  S
C965        C966   1.402       .  A
C966        S968   1.804       .  S
S967        H970   1.408       .  S
S968        H969   1.407       .  S
C973        C974   1.405       .  A
C973        C978   1.417       .  A
C974        H983   1.084       .  S
C974        C975   1.401       .  A
C975        C976   1.414       .  A
C975        S979   1.804       .  S
C976        C977   1.403       .  A
C977        H984   1.084       .  S
C977        C978   1.401       .  A
C978        S980   1.804       .  S
S979        H982   1.407       .  S
S980        H981   1.407       .  S
C985        C986   1.411       .  A
C985        C990   1.417       .  A
C986        H995   1.082       .  S
C986        C987   1.405       .  A
C987        C988   1.416       .  A
C987        S991   1.811       .  S
C988        C989   1.409       .  A
C989        H996   1.083       .  S
C989        C990   1.401       .  A
C990        S992   1.802       .  S
S991        H994   1.407       .  S
S992        H993   1.408       .  S
C997        C998   1.404       .  A
C997       C1002   1.422       .  A
C998       H1007   1.084       .  S
C998        C999   1.400       .  A
C999       C1000   1.419       .  A
C999       S1003   1.804       .  S
C1000      C1001   1.404       .  A
C1001      H1008   1.084       .  S
C1001      C1002   1.406       .  A
C1002      S1004   1.803       .  S
S1003      H1006   1.407       .  S
S1004      H1005   1.407       .  S
