geometry optimzed in LAMMPS
_audit_creation_date              2020-12-01 
_audit_creation_method            'lammps2cif' 
_symmetry_space_group_name_H-M    'P1' 
_symmetry_Int_Tables_number       1 
_symmetry_cell_setting            triclinic 
loop_ 
_symmetry_equiv_pos_as_xyz 
  x,y,z 
_cell_length_a                    50.25293155 
_cell_length_b                    50.18659492572328 
_cell_length_c                    50.38228962465425 
_cell_angle_alpha                 89.96789249846042 
_cell_angle_beta                  89.76795341803069 
_cell_angle_gamma                 90.27155323722954 
loop_ 
_atom_site_label 
_atom_site_type_symbol 
_atom_site_fract_x 
_atom_site_fract_y 
_atom_site_fract_z 
_atom_site_charge 
Zn1        Zn  0.74696511  0.73713278  0.78206148     1.49700
Zn2        Zn  0.73436548  0.78799924  0.74726257     1.49400
Zn3        Zn  0.78474348  0.75186802  0.73309077     1.49100
Zn4        Zn  0.72540595  0.72905518  0.72209122     1.49500
O5          O  0.74773637  0.75130946  0.74588213    -1.84400
O6          O  0.73034716  0.76296914  0.80755360    -0.75000
O7          O  0.76151933  0.81401547  0.73331930    -0.74800
O8          O  0.80973062  0.73755259  0.76088715    -0.74300
O9          O  0.72166579  0.79921976  0.78403342    -0.75000
O10         O  0.78367897  0.72682634  0.79501083    -0.74600
O11         O  0.79627374  0.78923749  0.72208933    -0.75200
O12         O  0.74871579  0.71243731  0.69260129    -0.74600
O13         O  0.70303329  0.79163743  0.72329442    -0.75300
O14         O  0.78929418  0.72783260  0.70129976    -0.74700
O15         O  0.69561945  0.75179101  0.70546072    -0.75200
O16         O  0.70763406  0.69876329  0.74333679    -0.75100
O17         O  0.72340211  0.70492148  0.78402888    -0.74900
C18         C  0.72076780  0.78633806  0.80581681     0.76900
C19         C  0.78471569  0.81178966  0.72330526     0.77400
C20         C  0.80659935  0.72792939  0.78410975     0.76400
C21         C  0.77365060  0.71359988  0.68733942     0.76700
C22         C  0.68966357  0.77640881  0.70814738     0.77900
C23         C  0.70882838  0.69211087  0.76780110     0.76900
C24         C  0.86179889  0.34868527  0.52034378     0.86300
C25         C  0.89239669  0.34752492  0.52015781    -0.54000
C26         C  0.90425162  0.36127585  0.49973255     0.09200
C27         C  0.88408166  0.37504692  0.48119246     0.20100
C28         C  0.85526085  0.37849217  0.51980738    -0.54700
C29         C  0.86741381  0.39268701  0.50001031     0.09300
C30         C  0.85346311  0.33893983  0.49267471    -0.54200
C31         C  0.86480276  0.35280456  0.47217843     0.09900
H32         H  0.90359598  0.33674186  0.53505282     0.14400
H33         H  0.89339124  0.38623490  0.46458285     0.00100
H34         H  0.84229314  0.38758487  0.53447388     0.14700
H35         H  0.83898980  0.32336231  0.48897488     0.14500
C36         C  0.14902067  0.36275122  0.45976483     0.86300
C37         C  0.11864840  0.35846607  0.45890714    -0.54000
C38         C  0.10516282  0.36760897  0.48088957     0.09200
C39         C  0.12384455  0.37999141  0.50197988     0.20100
C40         C  0.15207092  0.39294043  0.46476325    -0.54700
C41         C  0.13908745  0.40194973  0.48687750     0.09300
C42         C  0.15775612  0.34965457  0.48565437    -0.54200
C43         C  0.14486773  0.35848761  0.50780429     0.09900
H44         H  0.10885876  0.34905554  0.44218224     0.14400
H45         H  0.11367318  0.38742511  0.52005535     0.00100
H46         H  0.16235495  0.40658041  0.45156926     0.14700
H47         H  0.17355011  0.33496034  0.48638574     0.14500
C48         C  0.85776614  0.63757894  0.47539678     0.86300
C49         C  0.88776663  0.64280693  0.47964789    -0.54000
C50         C  0.89859200  0.62971890  0.50088985     0.09200
C51         C  0.87780980  0.61316825  0.51669477     0.20100
C52         C  0.85567771  0.60711938  0.47411514    -0.54700
C53         C  0.86613403  0.59409108  0.49546835     0.09300
C54         C  0.84474570  0.64516795  0.50169659    -0.54200
C55         C  0.85484285  0.63263533  0.52344686     0.09900
H56         H  0.90004395  0.65470459  0.46655171     0.14400
H57         H  0.88613090  0.60278228  0.53420337     0.00100
H58         H  0.84653054  0.59679968  0.45753220     0.14700
H59         H  0.82857028  0.65941487  0.50296302     0.14500
C60         C  0.13863796  0.63708784  0.55920342     0.86300
C61         C  0.10802263  0.63923662  0.55657274    -0.54000
C62         C  0.09793637  0.62906001  0.53342136     0.09200
C63         C  0.11968377  0.61798306  0.51469776     0.20100
C64         C  0.14434579  0.60733947  0.55485560    -0.54700
C65         C  0.13432762  0.59736525  0.53176160     0.09300
C66         C  0.14939769  0.65090178  0.53421812    -0.54200
C67         C  0.13993932  0.64102081  0.51080453     0.09900
H68         H  0.09506994  0.64797799  0.57130625     0.14400
H69         H  0.11192923  0.60945276  0.49593298     0.00100
H70         H  0.15488402  0.59507917  0.56910474     0.14700
H71         H  0.16440207  0.66651418  0.53514533     0.14500
C72         C  0.34998909  0.48125252  0.86946237     0.86300
C73         C  0.38015132  0.48211595  0.86413031    -0.54000
C74         C  0.39344401  0.50263439  0.87623147     0.09200
C75         C  0.37498530  0.52051697  0.89296163     0.20100
C76         C  0.34736856  0.48095603  0.89985160    -0.54700
C77         C  0.36059020  0.50130270  0.91222160     0.09300
C78         C  0.34059595  0.50907994  0.86100123    -0.54200
C79         C  0.35358108  0.52945950  0.87323470     0.09900
H80         H  0.39001071  0.46730100  0.85194815     0.14400
H81         H  0.38502825  0.53751284  0.90286336     0.00100
H82         H  0.33686571  0.46538898  0.91067830     0.05900
H83         H  0.32627024  0.51312288  0.84555519     0.14500
C84         C  0.36862354  0.52574358  0.15512954     0.86300
C85         C  0.39929644  0.52691842  0.15510504    -0.54000
C86         C  0.41141960  0.50690279  0.14110655     0.09200
C87         C  0.39146321  0.48691341  0.12895581     0.20100
C88         C  0.36105433  0.52442436  0.12563382    -0.54700
C89         C  0.37315459  0.50437250  0.11184541     0.09300
C90         C  0.36238070  0.49777705  0.16614645    -0.54200
C91         C  0.37411590  0.47749434  0.15250726     0.09900
H92         H  0.41037338  0.54245492  0.16525446     0.14400
H93         H  0.40072491  0.47038181  0.11765869     0.00100
H94         H  0.34835438  0.53905636  0.11617808     0.14700
H95         H  0.35050304  0.49379102  0.18369327     0.14500
C96         C  0.63372645  0.47683943  0.85134625     0.86300
C97         C  0.64191374  0.48150498  0.88019414    -0.54000
C98         C  0.63212538  0.50436688  0.89139191     0.09200
C99         C  0.61454923  0.52061442  0.87207039     0.20100
C100        C  0.60323127  0.47812747  0.85160646    -0.54700
C101        C  0.59298201  0.50087260  0.86237154     0.09300
C102        C  0.64195001  0.50239446  0.83652095    -0.54200
C103        C  0.63202586  0.52531952  0.84719692     0.09900
H104        H  0.65376941  0.46714081  0.89101199     0.14400
H105        H  0.60640623  0.53930675  0.88048070     0.00100
H106        H  0.59073076  0.46234524  0.84371884     0.14700
H107        H  0.65393955  0.50260378  0.81859728     0.14500
C108        C  0.65367090  0.47072997  0.12868799     0.86300
C109        C  0.62331981  0.47095174  0.13157237    -0.54000
C110        C  0.61126173  0.49352923  0.12248777     0.09200
C111        C  0.63124844  0.51444596  0.11160103     0.20100
C112        C  0.65858563  0.47644386  0.09897189    -0.54700
C113        C  0.64679757  0.49926869  0.08979046     0.09300
C114        C  0.66316140  0.49605451  0.14275651    -0.54200
C115        C  0.65133742  0.51895199  0.13438759     0.09900
H116        H  0.61243173  0.45444217  0.14043386     0.14400
H117        H  0.62194582  0.53312292  0.10456608     0.00100
H118        H  0.66924905  0.46324260  0.08581490     0.14700
H119        H  0.67783672  0.49576493  0.15853195     0.14500
C120        C  0.53876825  0.86160015  0.36167064     0.86300
C121        C  0.53392127  0.89125154  0.35541465    -0.54000
C122        C  0.51143367  0.90161804  0.36661030     0.09200
C123        C  0.49571181  0.88120295  0.38349991     0.20100
C124        C  0.53867032  0.86058759  0.39211695    -0.54700
C125        C  0.51624287  0.87089575  0.40385125     0.09300
C126        C  0.51319248  0.84735295  0.35365814    -0.54200
C127        C  0.49044153  0.85739005  0.36470207     0.09900
H128        H  0.54802250  0.90386986  0.34498618     0.14400
H129        H  0.47743986  0.88974952  0.39234762     0.00100
H130        H  0.55499761  0.85210383  0.40326112     0.14700
H131        H  0.51347698  0.83009852  0.34068446     0.14500
C132        C  0.54826774  0.14047640  0.36024229     0.86300
C133        C  0.54650842  0.14229061  0.39065261    -0.54000
C134        C  0.52320861  0.13270566  0.40123757     0.09200
C135        C  0.50383812  0.12179308  0.38019647     0.20100
C136        C  0.54308394  0.11059254  0.35432569    -0.54700
C137        C  0.51988093  0.10082476  0.36486481     0.09300
C138        C  0.52324550  0.15469830  0.35033074    -0.54200
C139        C  0.50005012  0.14498937  0.36068207     0.09900
H140        H  0.56214988  0.15120606  0.40254281     0.14400
H141        H  0.48485663  0.11382642  0.38828957     0.00100
H142        H  0.55679800  0.09750143  0.34421293     0.14700
H143        H  0.52384493  0.17087789  0.33599975     0.14500
C144        C  0.47100220  0.85707710  0.64593002     0.86300
C145        C  0.47312797  0.88743582  0.64921867    -0.54000
C146        C  0.49440780  0.89891605  0.63673579     0.09200
C147        C  0.51213370  0.87864513  0.62204254     0.20100
C148        C  0.47101927  0.85327779  0.61549041    -0.54700
C149        C  0.49255225  0.86467808  0.60289386     0.09300
C150        C  0.49772323  0.84617389  0.65506164    -0.54200
C151        C  0.51936483  0.85681991  0.64245662     0.09900
H152        H  0.45799296  0.89922761  0.65913659     0.14400
H153        H  0.52954938  0.88805124  0.61212555     0.00100
H154        H  0.45526825  0.84315371  0.60478510     0.14700
H155        H  0.49926214  0.83061642  0.66997776     0.14500
C156        C  0.46108637  0.14116097  0.63937724     0.86300
C157        C  0.46305881  0.14465476  0.60907516    -0.54000
C158        C  0.48498704  0.13315880  0.59776061     0.09200
C159        C  0.50354914  0.11976841  0.61806066     0.20100
C160        C  0.46319729  0.11108501  0.64390887    -0.54700
C161        C  0.48526923  0.09968563  0.63271575     0.09300
C162        C  0.48746319  0.15278595  0.64934642    -0.54200
C163        C  0.50973408  0.14220746  0.63802811     0.09900
H164        H  0.44871200  0.15585991  0.59760800     0.14400
H165        H  0.52141333  0.11042905  0.60911313     0.00100
H166        H  0.44802844  0.09964810  0.65435256     0.14700
H167        H  0.48857784  0.16939920  0.66302837     0.14500
Zn168      Zn  0.22502847  0.29953330  0.74261454     1.49700
Zn169      Zn  0.21873312  0.24102813  0.77144056     1.49400
Zn170      Zn  0.24130811  0.24697791  0.71146421     1.49100
Zn171      Zn  0.27589527  0.26593115  0.75916845     1.49500
O172        O  0.23979190  0.26339977  0.74635190    -1.84400
O173        O  0.19153639  0.30185521  0.76466767    -0.75000
O174        O  0.20454563  0.20831894  0.75255182    -0.74800
O175        O  0.22673554  0.27100340  0.68356160    -0.74300
O176        O  0.18676235  0.26233152  0.78445160    -0.75000
O177        O  0.21520272  0.30837080  0.70400955    -0.74600
O178        O  0.21849082  0.21472012  0.71104854    -0.75200
O179        O  0.30272890  0.25100988  0.73390905    -0.74600
O180        O  0.24097362  0.22740937  0.80302191    -0.75300
O181        O  0.27831039  0.23516547  0.70097205    -0.74700
O182        O  0.28008060  0.24468469  0.79195798    -0.75200
O183        O  0.28548993  0.30314851  0.76881242    -0.75100
O184        O  0.25049126  0.32738248  0.75746432    -0.74900
C185        C  0.17877252  0.28604926  0.77998090     0.76900
C186        C  0.20571943  0.20127424  0.72829251     0.77400
C187        C  0.21674522  0.29424231  0.68298800     0.76400
C188        C  0.30076782  0.23833678  0.71216122     0.76700
C189        C  0.26578203  0.23063565  0.80744117     0.77900
C190        C  0.27357941  0.32540829  0.76770836     0.76900
Zn191      Zn  0.24226007  0.70635159  0.28575096     1.49700
Zn192      Zn  0.25816748  0.75824421  0.31895724     1.49400
Zn193      Zn  0.29165356  0.74117583  0.26776804     1.49100
Zn194      Zn  0.23401788  0.76552842  0.25967396     1.49500
O195        O  0.25623137  0.74293270  0.28306962    -1.84400
O196        O  0.23243923  0.69635311  0.32383229    -0.75000
O197        O  0.29620171  0.76891286  0.32883898    -0.74800
O198        O  0.30101880  0.70425357  0.25568225    -0.74300
O199        O  0.24251896  0.73298801  0.34642953    -0.75000
O200        O  0.26712066  0.67891216  0.26864513    -0.74600
O201        O  0.31854619  0.75506199  0.29336238    -0.75200
O202        O  0.25512316  0.78103607  0.22833228    -0.74600
O203        O  0.23547758  0.79109491  0.32083547    -0.75300
O204        O  0.29500342  0.76383762  0.23517907    -0.74700
O205        O  0.21822807  0.79645377  0.28063505    -0.75200
O206        O  0.20360711  0.74345826  0.24472235    -0.75100
O207        O  0.20843012  0.70435890  0.26502549    -0.74900
C208        C  0.23277885  0.70948593  0.34552338     0.76900
C209        C  0.31799935  0.76624413  0.31604227     0.77400
C210        C  0.28942241  0.68167493  0.25669736     0.76400
C211        C  0.27942479  0.77822184  0.22151901     0.76700
C212        C  0.22072479  0.80382241  0.30474998     0.77900
C213        C  0.19583281  0.71966477  0.24936358     0.76900
Zn214      Zn  0.80736992  0.24647829  0.25432479     1.49700
Zn215      Zn  0.77496447  0.26268002  0.20273443     1.49400
Zn216      Zn  0.75650101  0.21348918  0.23774265     1.49100
Zn217      Zn  0.74894148  0.27255600  0.26139905     1.49500
O218        O  0.77179974  0.24911218  0.23920597    -1.84400
O219        O  0.83525268  0.25865519  0.22817138    -0.75000
O220        O  0.75974151  0.23707998  0.17578130    -0.74800
O221        O  0.78036613  0.18584451  0.25394065    -0.74300
O222        O  0.81303115  0.27212671  0.19266751    -0.75000
O223        O  0.81544751  0.20901231  0.26746831    -0.74600
O224        O  0.74671105  0.20285885  0.20056739    -0.75200
O225        O  0.71762897  0.25156624  0.27806375    -0.74600
O226        O  0.75305254  0.29544828  0.19916836    -0.75300
O227        O  0.72327389  0.21203165  0.25927817    -0.74700
O228        O  0.73366599  0.30232234  0.23831224    -0.75200
O229        O  0.77102380  0.28948661  0.29121098    -0.75100
O230        O  0.81088189  0.27136013  0.28524958    -0.74900
C231        C  0.83481801  0.26924614  0.20518068     0.76900
C232        C  0.74871826  0.21429711  0.17808026     0.77400
C233        C  0.80265190  0.18706150  0.26581270     0.76400
C234        C  0.71025168  0.22742604  0.27452404     0.76700
C235        C  0.73741434  0.30868325  0.21400956     0.77900
C236        C  0.79543075  0.28699036  0.29779514     0.76900
Zn237      Zn  0.70106746  0.24840399  0.75692651     1.49700
Zn238      Zn  0.75124241  0.28322842  0.74002465     1.49400
Zn239      Zn  0.76099896  0.22602117  0.76724991     1.49100
Zn240      Zn  0.73677304  0.23101764  0.70798819     1.49500
O241        O  0.73767056  0.24695599  0.74334484    -1.84400
O242        O  0.69100729  0.28576403  0.76839304    -0.75000
O243        O  0.78302499  0.28843780  0.76330742    -0.74800
O244        O  0.73808631  0.20926357  0.79687513    -0.74300
O245        O  0.72469691  0.31005381  0.75299999    -0.75000
O246        O  0.69734386  0.22428536  0.78865867    -0.74600
O247        O  0.78992492  0.25003971  0.78398242    -0.75200
O248        O  0.75903289  0.19848449  0.70732068    -0.74600
O249        O  0.76263967  0.29186655  0.70252320    -0.75300
O250        O  0.77924032  0.19566680  0.74641638    -0.74700
O251        O  0.75188565  0.25556301  0.67982063    -0.75200
O252        O  0.70000460  0.21953741  0.69732739    -0.75100
O253        O  0.67445897  0.23536638  0.72971441    -0.74900
C254        C  0.70240783  0.30825820  0.76498842     0.76900
C255        C  0.79604002  0.27446300  0.77981602     0.77400
C256        C  0.71323490  0.21026793  0.80244243     0.76400
C257        C  0.77515684  0.18699831  0.72291474     0.76700
C258        C  0.76196466  0.27886952  0.68081466     0.77900
C259        C  0.67720537  0.22325819  0.70765460     0.76900
C260        C  0.64569778  0.85583809  0.02242068     0.86300
C261        C  0.65045741  0.88563098  0.01669832    -0.54000
C262        C  0.63592489  0.89560883  0.99608451     0.09200
C263        C  0.61818878  0.87460807  0.98253724     0.20100
C264        C  0.61561226  0.85314520  0.02590641    -0.54700
C265        C  0.60102668  0.86319775  0.00539689     0.09300
C266        C  0.65187183  0.84241042  0.99577313    -0.54200
C267        C  0.63768095  0.85218778  0.97483384     0.09900
H268        H  0.66387104  0.89799221  0.02820192     0.14400
H269        H  0.60650967  0.88244709  0.96560882     0.00100
H270        H  0.60656226  0.84505601  0.04382010     0.14700
H271        H  0.66738372  0.82763444  0.99323233     0.14500
C272        C  0.64868879  0.13492440  0.02280939     0.86300
C273        C  0.61885138  0.14117274  0.02345921    -0.54000
C274        C  0.60467245  0.13097329  0.00255601     0.09200
C275        C  0.62230735  0.11572989  0.98238050     0.20100
C276        C  0.65022288  0.10443731  0.01999747    -0.54700
C277        C  0.63640116  0.09434216  0.99897137     0.09300
C278        C  0.65854018  0.14506092  0.99572165    -0.54200
C279        C  0.64490070  0.13511698  0.97451227     0.09900
H280        H  0.60990919  0.15259031  0.03941986     0.14400
H281        H  0.61171507  0.10716848  0.96510249     0.00100
H282        H  0.66171063  0.09178533  0.03306318     0.14700
H283        H  0.67554734  0.15825787  0.99329856     0.14500
C284        C  0.36156854  0.86341779  0.05705703     0.86300
C285        C  0.39209721  0.86168948  0.05491838    -0.54000
C286        C  0.40244685  0.87101649  0.03158187     0.09200
C287        C  0.38122562  0.88156944  0.01229275     0.20100
C288        C  0.35589278  0.89312061  0.05201185    -0.54700
C289        C  0.36626505  0.90291647  0.02866261     0.09300
C290        C  0.35113870  0.84915278  0.03238692    -0.54200
C291        C  0.36112445  0.85844021  0.00885986     0.09900
H292        H  0.40491644  0.85479858  0.07068439     0.14400
H293        H  0.38995655  0.88896578  0.99342625     0.00100
H294        H  0.34474558  0.90524537  0.06593502     0.14700
H295        H  0.33620158  0.83348036  0.03357770     0.14500
C296        C  0.36234477  0.14139525  0.96007085     0.86300
C297        C  0.39300318  0.14335787  0.96111072    -0.54000
C298        C  0.40417858  0.13177850  0.98292097     0.09200
C299        C  0.38356870  0.11903876  0.00183888     0.20100
C300        C  0.35681441  0.11131595  0.96226660    -0.54700
C301        C  0.36777683  0.09944329  0.98409566     0.09300
C302        C  0.35287716  0.15300118  0.98655589    -0.54200
C303        C  0.36395553  0.14164620  0.00857003     0.09900
H304        H  0.40525891  0.15249249  0.94591835     0.14400
H305        H  0.39285147  0.10957711  0.01937389     0.00100
H306        H  0.34511676  0.10043454  0.94776791     0.14700
H307        H  0.33821691  0.16879436  0.98759081     0.14500
Zn308      Zn  0.24524869  0.74673293  0.81437963     1.49700
Zn309      Zn  0.21435649  0.76429264  0.76312938     1.49400
Zn310      Zn  0.26593894  0.79725322  0.78183942     1.49100
Zn311      Zn  0.27177484  0.73824349  0.75599577     1.49500
O312        O  0.24959157  0.76163837  0.77876466    -1.84400
O313        O  0.20689954  0.73709123  0.82307232    -0.75000
O314        O  0.20702026  0.80176220  0.75179587    -0.74800
O315        O  0.27424952  0.80719617  0.82046786    -0.74300
O316        O  0.18525530  0.75079238  0.78737041    -0.75000
O317        O  0.25992613  0.77140364  0.84222707    -0.74600
O318        O  0.24260972  0.82516474  0.76403420    -0.75200
O319        O  0.30385354  0.75854597  0.74157819    -0.74600
O320        O  0.21153651  0.74142251  0.73073752    -0.75300
O321        O  0.30088669  0.79770346  0.76197320    -0.74700
O322        O  0.25088393  0.72258968  0.72461685    -0.75200
O323        O  0.28575695  0.70753574  0.77804258    -0.75100
O324        O  0.26665143  0.71342532  0.81745379    -0.74900
C325        C  0.18535201  0.73966417  0.81008689     0.76900
C326        C  0.21995516  0.82361970  0.75271852     0.77400
C327        C  0.27126020  0.79416146  0.84206396     0.76400
C328        C  0.31306486  0.78174807  0.74648502     0.76700
C329        C  0.22671223  0.72593286  0.71772795     0.77900
C330        C  0.28189386  0.70035253  0.80205814     0.76900
C331        C  0.86867351  0.02737451  0.64289308     0.86300
C332        C  0.89862468  0.02269615  0.64694264    -0.54000
C333        C  0.90779187  0.99934631  0.63618463     0.09200
C334        C  0.88596968  0.98276588  0.62213727     0.20100
C335        C  0.86490921  0.02528794  0.61275003    -0.54700
C336        C  0.87348199  0.00195313  0.60163558     0.09300
C337        C  0.85547152  0.00231452  0.65422952    -0.54200
C338        C  0.86411020  0.97890268  0.64353564     0.09900
H339        H  0.91184151  0.03652202  0.65686115     0.14400
H340        H  0.89315049  0.96378680  0.61346183     0.00100
H341        H  0.85602064  0.04119909  0.60123166     0.14700
H342        H  0.84068851  0.00322998  0.66998625     0.14500
C343        C  0.14322829  0.02732550  0.65209337     0.86300
C344        C  0.14867388  0.02708740  0.62217308    -0.54000
C345        C  0.14019667  0.00463553  0.60924792     0.09200
C346        C  0.12843451  0.98332127  0.62829347     0.20100
C347        C  0.11359024  0.02089829  0.65496761    -0.54700
C348        C  0.10562488  0.99792327  0.64275660     0.09300
C349        C  0.15754486  0.00251807  0.66209261    -0.54200
C350        C  0.14995686  0.97941508  0.64994959     0.09900
H351        H  0.15784911  0.04384771  0.61196228     0.14400
H352        H  0.12204221  0.96461823  0.61839873     0.00100
H353        H  0.09990151  0.03399026  0.66535343     0.14700
H354        H  0.17232040  0.00270203  0.67766338     0.14500
C355        C  0.86588242  0.02009857  0.36035168     0.86300
C356        C  0.86014106  0.01819894  0.39021539    -0.54000
C357        C  0.86964480  0.99562896  0.40229627     0.09200
C358        C  0.88451503  0.97687202  0.38287159     0.20100
C359        C  0.89615111  0.01682872  0.35789385    -0.54700
C360        C  0.90610329  0.99455085  0.36979065     0.09300
C361        C  0.85487453  0.99401256  0.34873547    -0.54200
C362        C  0.86431739  0.97138727  0.36041167     0.09900
H363        H  0.84989106  0.03390717  0.40089047     0.14400
H364        H  0.89235959  0.95843767  0.39208353     0.00100
H365        H  0.90883358  0.03112568  0.34766490     0.14700
H366        H  0.84164944  0.99304352  0.33182468     0.14500
C367        C  0.14599448  0.02567625  0.36512091     0.86300
C368        C  0.11543233  0.02348858  0.36328061    -0.54000
C369        C  0.10472316  0.00208966  0.37645564     0.09200
C370        C  0.12551878  0.98485728  0.39070553     0.20100
C371        C  0.15170838  0.02559509  0.39493758    -0.54700
C372        C  0.14073240  0.00465278  0.40862760     0.09300
C373        C  0.15568837  0.99858387  0.35515389    -0.54200
C374        C  0.14512635  0.97718908  0.36829596     0.09900
H375        H  0.10292888  0.03677552  0.35200540     0.14400
H376        H  0.11670103  0.96754495  0.40134845     0.00100
H377        H  0.16285332  0.04147396  0.40451198     0.14700
H378        H  0.16967926  0.99652130  0.33879510     0.14500
Zn379      Zn  0.73406910  0.72393228  0.26662660     1.49700
Zn380      Zn  0.74702460  0.78204173  0.24131910     1.49400
Zn381      Zn  0.79475949  0.74672062  0.26001645     1.49100
Zn382      Zn  0.76230695  0.72973505  0.20869991     1.49500
O383        O  0.75927335  0.74534602  0.24428499    -1.84400
O384        O  0.70307200  0.74724010  0.27957903    -0.75000
O385        O  0.77249586  0.80839689  0.25807748    -0.74800
O386        O  0.79320130  0.72775330  0.29448966    -0.74300
O387        O  0.71270816  0.78623438  0.26096767    -0.75000
O388        O  0.75300324  0.70995561  0.29999544    -0.74600
O389        O  0.80752946  0.78422545  0.26913738    -0.75200
O390        O  0.79982235  0.71583051  0.20135076    -0.74600
O391        O  0.73976272  0.79202129  0.20325981    -0.75300
O392        O  0.82202322  0.72744707  0.23758759    -0.74700
O393        O  0.75064998  0.75579139  0.18040856    -0.75200
O394        O  0.73705686  0.69875769  0.20518295    -0.75100
O395        O  0.71841454  0.69270314  0.24485044    -0.74900
C396        C  0.69761145  0.77169790  0.27530836     0.76900
C397        C  0.79551555  0.80651400  0.26840887     0.77400
C398        C  0.77667811  0.71422692  0.30819945     0.76400
C399        C  0.82116871  0.71599177  0.21502507     0.76700
C400        C  0.74144932  0.77940141  0.18138074     0.77900
C401        C  0.72124535  0.68605366  0.22047736     0.76900
C402        C  0.96812383  0.64538245  0.87120546     0.86300
C403        C  0.97129431  0.61627769  0.86250085    -0.54000
C404        C  0.99401870  0.60430729  0.87129778     0.09200
C405        C  0.01190141  0.62286562  0.88798079     0.20100
C406        C  0.97094524  0.64471473  0.90158724    -0.54700
C407        C  0.99345129  0.63248142  0.91059412     0.09300
C408        C  0.99363432  0.65928517  0.86180561    -0.54200
C409        C  0.01663431  0.64762341  0.87016137     0.09900
H410        H  0.95625034  0.60578311  0.85108215     0.14400
H411        H  0.03047802  0.61313871  0.89467405     0.00100
H412        H  0.95702916  0.65383527  0.91514634     0.14700
H413        H  0.99344931  0.67708313  0.84952570     0.14500
C414        C  0.04177472  0.63590902  0.15084219     0.86300
C415        C  0.04042257  0.60540550  0.15358237    -0.54000
C416        C  0.01852862  0.59381012  0.14221168     0.09200
C417        C  0.99987521  0.61417173  0.12885739     0.20100
C418        C  0.03995887  0.64054276  0.12073527    -0.54700
C419        C  0.01830594  0.62892579  0.10902922     0.09300
C420        C  0.01536978  0.64588062  0.16198199    -0.54200
C421        C  0.99326531  0.63471258  0.15084878     0.09900
H422        H  0.05614207  0.59395549  0.16283766     0.14400
H423        H  0.98204786  0.60488063  0.11976210     0.00100
H424        H  0.05503145  0.65078193  0.10916006     0.14700
H425        H  0.01442355  0.66103111  0.17734164     0.14500
C426        C  0.95982223  0.36567376  0.85596046     0.86300
C427        C  0.96274990  0.36482530  0.88628905    -0.54000
C428        C  0.98627922  0.37496236  0.89568664     0.09200
C429        C  0.00505541  0.38475828  0.87334958     0.20100
C430        C  0.96486238  0.39525410  0.84883632    -0.54700
C431        C  0.98839519  0.40529869  0.85814538     0.09300
C432        C  0.98437535  0.35111258  0.84535697    -0.54200
C433        C  0.00815543  0.36071410  0.85442849     0.09900
H434        H  0.94735088  0.35649041  0.89899110     0.14400
H435        H  0.02421207  0.39313457  0.88026015     0.00100
H436        H  0.95069425  0.40807918  0.83911315     0.14700
H437        H  0.98286246  0.33456211  0.83156534     0.14500
C438        C  0.05195402  0.35209579  0.12998098     0.86300
C439        C  0.04809629  0.35157401  0.09968601    -0.54000
C440        C  0.02533351  0.36362343  0.09115214     0.09200
C441        C  0.00783919  0.37436888  0.11389694     0.20100
C442        C  0.04943703  0.38167979  0.13755277    -0.54700
C443        C  0.02651962  0.39355018  0.12890119     0.09300
C444        C  0.02664619  0.33891711  0.14076630    -0.54200
C445        C  0.00355445  0.35062464  0.13293782     0.09900
H446        H  0.06169292  0.34240357  0.08579656     0.14400
H447        H  0.98903977  0.38382303  0.10743878     0.00100
H448        H  0.06507733  0.39247664  0.14782849     0.14700
H449        H  0.02699078  0.32176234  0.15392679     0.14500
Zn450      Zn  0.27125317  0.25552148  0.21166208     1.49700
Zn451      Zn  0.28682191  0.20439126  0.24485530     1.49400
Zn452      Zn  0.29513703  0.26428253  0.26986088     1.49100
Zn453      Zn  0.23663716  0.23854524  0.26181787     1.49500
O454        O  0.27271938  0.24078062  0.24732954    -1.84400
O455        O  0.28585241  0.23020175  0.18491592    -0.75000
O456        O  0.31959228  0.20254367  0.26677977    -0.74800
O457        O  0.31072961  0.29550742  0.24805394    -0.74300
O458        O  0.29680007  0.19366302  0.20696513    -0.75000
O459        O  0.29328615  0.28874881  0.20823466    -0.74600
O460        O  0.32599589  0.24253662  0.28481408    -0.75200
O461        O  0.23418403  0.25895868  0.29576379    -0.74600
O462        O  0.26155151  0.17702655  0.26067105    -0.75300
O463        O  0.27322218  0.27921085  0.30123557    -0.74700
O464        O  0.22591177  0.20091068  0.27084910    -0.75200
O465        O  0.20967621  0.25413113  0.23673847    -0.75100
O466        O  0.23395549  0.26471882  0.20133356    -0.74900
C467        C  0.29549019  0.20683041  0.18535688     0.76900
C468        C  0.33279968  0.21823619  0.28163016     0.77400
C469        C  0.30794305  0.30231152  0.22375602     0.76400
C470        C  0.24939000  0.27435156  0.30890140     0.76700
C471        C  0.23810092  0.17874841  0.27019577     0.77900
C472        C  0.21166285  0.26361714  0.21336014     0.76900
C473        C  0.07710948  0.33915020  0.14099735    -0.01500
C474        C  0.09837385  0.33086552  0.12481075    -0.09500
C475        C  0.12031159  0.31781726  0.13553049    -0.18400
C476        C  0.12195208  0.31248013  0.16300425     0.04000
C477        C  0.10070444  0.32119692  0.17945742     0.18200
C478        C  0.07906146  0.33487634  0.16850443    -0.19800
C479        C  0.10103931  0.31604703  0.20675706    -0.21100
C480        C  0.12219981  0.30255208  0.21815971    -0.19600
C481        C  0.14374344  0.29424546  0.20260769     0.19600
C482        C  0.14398612  0.29909304  0.17478717     0.01700
C483        C  0.16648073  0.29071505  0.16009492    -0.14300
C484        C  0.18805863  0.27877659  0.17262223    -0.12100
C485        C  0.18784308  0.27434524  0.20006381     0.01300
C486        C  0.16536949  0.28166681  0.21485996    -0.24200
H487        H  0.09877575  0.33461730  0.10376063     0.09300
H488        H  0.13560970  0.31207394  0.12166939     0.12800
H489        H  0.06316536  0.34165395  0.18142674     0.11600
H490        H  0.08478247  0.32246616  0.21939020     0.12700
H491        H  0.12188310  0.29892123  0.23936861     0.11800
H492        H  0.16830362  0.29354267  0.13897712     0.08900
H493        H  0.20514087  0.27317194  0.16072295     0.12100
H494        H  0.16508826  0.27847098  0.23614958     0.14000
C495        C  0.99263665  0.37678162  0.92458706    -0.01500
C496        C  0.01911325  0.37805521  0.93317722    -0.09500
C497        C  0.02525058  0.37852889  0.96015735    -0.18400
C498        C  0.00502646  0.37700470  0.97970507     0.04000
C499        C  0.97819589  0.37630000  0.97102525     0.18200
C500        C  0.97228177  0.37680050  0.94382616    -0.19800
C501        C  0.95738792  0.37429893  0.98950274    -0.21100
C502        C  0.96270060  0.37190557  0.01645235    -0.19600
C503        C  0.98893319  0.37195624  0.02562789     0.19600
C504        C  0.01045877  0.37518310  0.00744616     0.01700
C505        C  0.03651106  0.37592307  0.01780205    -0.14300
C506        C  0.04102518  0.37244067  0.04481597    -0.12100
C507        C  0.01986362  0.36805040  0.06254252     0.01300
C508        C  0.99379732  0.36838576  0.05286166    -0.24200
H509        H  0.03546127  0.37776760  0.91919008     0.09300
H510        H  0.04609970  0.37913858  0.96498574     0.12800
H511        H  0.95163542  0.37681982  0.93780777     0.11600
H512        H  0.93685616  0.37385703  0.98300624     0.12700
H513        H  0.94617611  0.36970945  0.03018621     0.11800
H514        H  0.05387377  0.37917869  0.00560709     0.08900
H515        H  0.06133752  0.37343832  0.05184353     0.12100
H516        H  0.97726387  0.36520710  0.06637321     0.14000
C517        C  0.01499075  0.56427393  0.14103631    -0.01500
C518        C  0.00417744  0.55191547  0.11854922    -0.09500
C519        C  0.00354338  0.52405610  0.11633299    -0.18400
C520        C  0.01393546  0.50757263  0.13661570     0.04000
C521        C  0.02399460  0.52028125  0.15973643     0.18200
C522        C  0.02420780  0.54818415  0.16179420    -0.19800
C523        C  0.03447206  0.50513930  0.18050531    -0.21100
C524        C  0.03597745  0.47759411  0.17856321    -0.19600
C525        C  0.02694279  0.46442333  0.15584661     0.19600
C526        C  0.01536062  0.47908698  0.13467295     0.01700
C527        C  0.00630131  0.46456643  0.11236286    -0.14300
C528        C  0.00937479  0.43687599  0.11089187    -0.12100
C529        C  0.02152350  0.42269097  0.13151045     0.01300
C530        C  0.02990578  0.43664125  0.15407439    -0.24200
H531        H  0.99708449  0.56378086  0.10210061     0.09300
H532        H  0.99537644  0.51603214  0.09826200     0.12800
H533        H  0.03208059  0.55743944  0.17956065     0.11600
H534        H  0.04204022  0.51472495  0.19822830     0.12700
H535        H  0.04464584  0.46652878  0.19483520     0.11800
H536        H  0.99713051  0.47408899  0.09557024     0.08900
H537        H  0.00295051  0.42667655  0.09308312     0.12100
H538        H  0.03894322  0.42583464  0.17032462     0.14000
C539        C  0.99915657  0.57550079  0.86683405    -0.01500
C540        C  0.99309921  0.56386067  0.84233303    -0.09500
C541        C  0.99431998  0.53630128  0.83885577    -0.18400
C542        C  0.00125924  0.51925752  0.86006944     0.04000
C543        C  0.00872276  0.53126642  0.88453996     0.18200
C544        C  0.00781956  0.55916098  0.88762475    -0.19800
C545        C  0.01612233  0.51529931  0.90605443    -0.21100
C546        C  0.01546200  0.48763350  0.90410338    -0.19600
C547        C  0.00715291  0.47518974  0.88065904     0.19600
C548        C  0.00021369  0.49079677  0.85817496     0.01700
C549        C  0.99148006  0.47721461  0.83515919    -0.14300
C550        C  0.98863117  0.44951076  0.83491486    -0.12100
C551        C  0.99476093  0.43429407  0.85734418     0.01300
C552        C  0.00472519  0.44723418  0.87992204    -0.24200
H553        H  0.98688712  0.57616833  0.82583081     0.09300
H554        H  0.98916563  0.52895060  0.81945283     0.12800
H555        H  0.01248233  0.56802390  0.90668495     0.11600
H556        H  0.02198736  0.52427218  0.92471456     0.12700
H557        H  0.02084878  0.47587859  0.92129950     0.11800
H558        H  0.98594729  0.48745132  0.81722809     0.08900
H559        H  0.98115605  0.43993653  0.81716427     0.12100
H560        H  0.00918832  0.43568037  0.89752686     0.14000
C561        C  0.99838776  0.62844702  0.93951935    -0.01500
C562        C  0.02424743  0.62720340  0.94966494    -0.09500
C563        C  0.02858146  0.62556606  0.97705261    -0.18400
C564        C  0.00702460  0.62544342  0.99528910     0.04000
C565        C  0.98086397  0.62583711  0.98480885     0.18200
C566        C  0.97684929  0.62666024  0.95732844    -0.19800
C567        C  0.95874440  0.62612740  0.00178628    -0.21100
C568        C  0.96201530  0.62676471  0.02913086    -0.19600
C569        C  0.98747998  0.62662698  0.04019664     0.19600
C570        C  0.01036855  0.62551722  0.02347130     0.01700
C571        C  0.03556049  0.62477426  0.03572995    -0.14300
C572        C  0.03790391  0.62575668  0.06328213    -0.12100
C573        C  0.01533506  0.62765285  0.07967968     0.01300
C574        C  0.99015817  0.62773302  0.06794621    -0.24200
H575        H  0.04130504  0.62831573  0.93656330     0.09300
H576        H  0.04904317  0.62517622  0.98332644     0.12800
H577        H  0.95665661  0.62631149  0.94989817     0.11600
H578        H  0.93873418  0.62642553  0.99384132     0.12700
H579        H  0.94448682  0.62747026  0.04171477     0.11800
H580        H  0.05384789  0.62328566  0.02461097     0.08900
H581        H  0.05762826  0.62463299  0.07175190     0.12100
H582        H  0.97258034  0.62908518  0.08036577     0.14000
C583        C  0.84538414  0.70221901  0.20488140    -0.01500
C584        C  0.84664346  0.69257432  0.17877731    -0.09500
C585        C  0.86949333  0.67977839  0.16922707    -0.18400
C586        C  0.89194526  0.67594126  0.18563817     0.04000
C587        C  0.89015764  0.68482024  0.21240354     0.18200
C588        C  0.86726281  0.69800297  0.22159761    -0.19800
C589        C  0.91125689  0.68053908  0.22991217    -0.21100
C590        C  0.93434299  0.66803507  0.22134132    -0.19600
C591        C  0.93720467  0.66003853  0.19487830     0.19600
C592        C  0.91613164  0.66381396  0.17655193     0.01700
C593        C  0.92057134  0.65590405  0.14988316    -0.14300
C594        C  0.94515579  0.64547815  0.14171993    -0.12100
C595        C  0.96600367  0.64244366  0.15980318     0.01300
C596        C  0.96145760  0.64903803  0.18652545    -0.24200
H597        H  0.82993647  0.69511359  0.16551928     0.09300
H598        H  0.86895117  0.67297969  0.14894924     0.12800
H599        H  0.86644895  0.70483018  0.24200073     0.11600
H600        H  0.90993445  0.68699141  0.25040244     0.12700
H601        H  0.95035391  0.66517164  0.23539793     0.11800
H602        H  0.90571615  0.65831914  0.13471492     0.08900
H603        H  0.94814137  0.64075470  0.12097643     0.12100
H604        H  0.97719667  0.64624795  0.20090184     0.14000
C605        C  0.15968475  0.04893880  0.35075638    -0.01500
C606        C  0.18762607  0.04973557  0.34987190    -0.09500
C607        C  0.20127642  0.06985514  0.33623779    -0.18400
C608        C  0.18742347  0.09046346  0.32319776     0.04000
C609        C  0.15920828  0.09044958  0.32511734     0.18200
C610        C  0.14570687  0.06986812  0.33858887    -0.19800
C611        C  0.14453165  0.11113981  0.31374077    -0.21100
C612        C  0.15728975  0.13202899  0.30071518    -0.19600
C613        C  0.18501789  0.13245529  0.29816419     0.19600
C614        C  0.20050011  0.11139363  0.30883227     0.01700
C615        C  0.22834143  0.11221491  0.30453338    -0.14300
C616        C  0.24031349  0.13355942  0.29112716    -0.12100
C617        C  0.22505777  0.15487679  0.28179751     0.01300
C618        C  0.19736310  0.15399911  0.28515175    -0.24200
H619        H  0.19905901  0.03436260  0.35964509     0.09300
H620        H  0.22268951  0.06891311  0.33658006     0.12800
H621        H  0.12432068  0.07088256  0.33973755     0.11600
H622        H  0.12300719  0.11134029  0.31518856     0.12700
H623        H  0.14535439  0.14792752  0.29247610     0.11800
H624        H  0.24139259  0.09664019  0.31122737     0.08900
H625        H  0.26174674  0.13372541  0.28874013     0.12100
H626        H  0.18534119  0.17024119  0.27770881     0.14000
C627        C  0.85551751  0.94467225  0.35098369    -0.01500
C628        C  0.87376828  0.92462155  0.34468273    -0.09500
C629        C  0.86535786  0.90124734  0.33172485    -0.18400
C630        C  0.83830343  0.89737698  0.32463162     0.04000
C631        C  0.81992014  0.91753593  0.33204766     0.18200
C632        C  0.82857283  0.94052894  0.34527615    -0.19800
C633        C  0.79300914  0.91517285  0.32549537    -0.21100
C634        C  0.78388439  0.89350919  0.31104192    -0.19600
C635        C  0.80133783  0.87338052  0.30313559     0.19600
C636        C  0.82873071  0.87465699  0.31011877     0.01700
C637        C  0.84509911  0.85313099  0.30223989    -0.14300
C638        C  0.83457038  0.83128908  0.28827892    -0.12100
C639        C  0.80757363  0.83039410  0.28124753     0.01300
C640        C  0.79126160  0.85176088  0.28857191    -0.24200
H641        H  0.89473669  0.92753865  0.34871893     0.09300
H642        H  0.88052347  0.88692508  0.32682888     0.12800
H643        H  0.81430382  0.95588133  0.35035521     0.11600
H644        H  0.77894576  0.93047568  0.33118609     0.12700
H645        H  0.76295160  0.89249377  0.30601085     0.11800
H646        H  0.86598815  0.85244736  0.30696901     0.08900
H647        H  0.84760279  0.81495379  0.28310266     0.12100
H648        H  0.77026264  0.85118667  0.28370814     0.14000
C649        C  0.93511950  0.98893121  0.36940996    -0.01500
C650        C  0.94953998  0.99322163  0.34597943    -0.09500
C651        C  0.97721707  0.99225077  0.34574309    -0.18400
C652        C  0.99166059  0.98714891  0.36921730     0.04000
C653        C  0.97699408  0.98164716  0.39279833     0.18200
C654        C  0.94892862  0.98231352  0.39262068    -0.19800
C655        C  0.99047224  0.97664320  0.41658286    -0.21100
C656        C  0.01817592  0.97809924  0.41767929    -0.19600
C657        C  0.03312955  0.98446512  0.39499077     0.19600
C658        C  0.02005381  0.98841005  0.37029490     0.01700
C659        C  0.03592579  0.99429547  0.34782638    -0.14300
C660        C  0.06327880  0.99781912  0.35006025    -0.12100
C661        C  0.07598817  0.99537950  0.37458072     0.01300
C662        C  0.06098665  0.98775803  0.39689358    -0.24200
H663        H  0.93929733  0.99805243  0.32772701     0.09300
H664        H  0.98662814  0.99637265  0.32695074     0.12800
H665        H  0.93803113  0.97932135  0.41088385     0.11600
H666        H  0.97947650  0.97225071  0.43462482     0.12700
H667        H  0.02793162  0.97478542  0.43653229     0.11800
H668        H  0.02785682  0.99675940  0.32822868     0.08900
H669        H  0.07460701  0.00280435  0.33238505     0.12100
H670        H  0.07078728  0.98558649  0.41590250     0.14000
C671        C  0.13914829  0.00375423  0.57962378    -0.01500
C672        C  0.13453192  0.02748215  0.56567772    -0.09500
C673        C  0.13441463  0.02814417  0.53813423    -0.18400
C674        C  0.13859277  0.00484388  0.52307816     0.04000
C675        C  0.14217976  0.98046030  0.53701042     0.18200
C676        C  0.14246640  0.98009024  0.56511347    -0.19800
C677        C  0.14548899  0.95673555  0.52271933    -0.21100
C678        C  0.14532805  0.95675478  0.49498795    -0.19600
C679        C  0.14224480  0.98055508  0.48075456     0.19600
C680        C  0.13906777  0.00496601  0.49470470     0.01700
C681        C  0.13666653  0.02858591  0.47965939    -0.14300
C682        C  0.13719038  0.02802733  0.45208523    -0.12100
C683        C  0.14024062  0.00405835  0.43820409     0.01300
C684        C  0.14248939  0.98024315  0.45267841    -0.24200
H685        H  0.13061564  0.04591719  0.57610367     0.09300
H686        H  0.13063893  0.04729580  0.52933994     0.12800
H687        H  0.14572335  0.96153895  0.57559845     0.11600
H688        H  0.14813561  0.93800225  0.53306055     0.12700
H689        H  0.14783347  0.93802929  0.48459628     0.11800
H690        H  0.13452116  0.04798177  0.48848478     0.08900
H691        H  0.13480082  0.04666856  0.44154019     0.12100
H692        H  0.14493471  0.96159074  0.44214731     0.14000
C693        C  0.86992109  0.99621817  0.57268875    -0.01500
C694        C  0.84777842  0.00642925  0.55924835    -0.09500
C695        C  0.84514720  0.00369375  0.53181825    -0.18400
C696        C  0.86477662  0.99064292  0.51652814     0.04000
C697        C  0.88668898  0.97930211  0.53022633     0.18200
C698        C  0.88884473  0.98182446  0.55805853    -0.19800
C699        C  0.90676179  0.96629584  0.51593440    -0.21100
C700        C  0.90611684  0.96527834  0.48829710    -0.19600
C701        C  0.88529266  0.97709521  0.47418565     0.19600
C702        C  0.86395079  0.98931087  0.48812545     0.01700
C703        C  0.84311535  0.00034939  0.47294005    -0.14300
C704        C  0.84454852  0.00122086  0.44525395    -0.12100
C705        C  0.86655634  0.99089472  0.43153137     0.01300
C706        C  0.88618157  0.97762522  0.44619518    -0.24200
H707        H  0.83230005  0.01685590  0.56998516     0.09300
H708        H  0.82775935  0.01257512  0.52313919     0.12800
H709        H  0.90587134  0.97351934  0.56805946     0.11600
H710        H  0.92346709  0.95744505  0.52616738     0.12700
H711        H  0.92236585  0.95570874  0.47785545     0.11800
H712        H  0.82566351  0.00900982  0.48184604     0.08900
H713        H  0.82837759  0.01045107  0.43456096     0.12100
H714        H  0.90285236  0.96871637  0.43605058     0.14000
C715        C  0.93625253  0.99146922  0.63812528    -0.01500
C716        C  0.94990800  0.98109290  0.61620296    -0.09500
C717        C  0.97753650  0.97746285  0.61692932    -0.18400
C718        C  0.99237916  0.98411240  0.63983336     0.04000
C719        C  0.97801319  0.99265662  0.66266379     0.18200
C720        C  0.95035251  0.99620096  0.66159845    -0.19800
C721        C  0.99141599  0.99868912  0.68618636    -0.21100
C722        C  0.01898309  0.99790314  0.68717655    -0.19600
C723        C  0.03383280  0.99134357  0.66459228     0.19600
C724        C  0.02088739  0.98371666  0.64071184     0.01700
C725        C  0.03713658  0.97741931  0.61852491    -0.14300
C726        C  0.06488735  0.98046462  0.61958522    -0.12100
C727        C  0.07719975  0.98958272  0.64276492     0.01300
C728        C  0.06160155  0.99376720  0.66547347    -0.24200
H729        H  0.93947234  0.97695149  0.59798061     0.09300
H730        H  0.98680604  0.97008832  0.59907491     0.12800
H731        H  0.93981336  0.00347790  0.67894887     0.11600
H732        H  0.98053475  0.00482872  0.70375013     0.12700
H733        H  0.02879701  0.00347518  0.70548786     0.11800
H734        H  0.02890598  0.97119429  0.59979377     0.08900
H735        H  0.07656311  0.97706039  0.60179860     0.12100
H736        H  0.07107757  0.00022849  0.68368821     0.14000
C737        C  0.20867664  0.84716269  0.73909288    -0.01500
C738        C  0.18180529  0.84724237  0.73172059    -0.09500
C739        C  0.17144567  0.86772583  0.71619529    -0.18400
C740        C  0.18779285  0.88885855  0.70714943     0.04000
C741        C  0.21489314  0.88913187  0.71532710     0.18200
C742        C  0.22498918  0.86851163  0.73125095    -0.19800
C743        C  0.23189391  0.90975281  0.70720186    -0.21100
C744        C  0.22259932  0.93014879  0.69111420    -0.19600
C745        C  0.19609602  0.93039838  0.68267623     0.19600
C746        C  0.17827086  0.90972147  0.69036110     0.01700
C747        C  0.15171569  0.91101632  0.68099623    -0.14300
C748        C  0.14295058  0.93273380  0.66596850    -0.12100
C749        C  0.16034895  0.95361180  0.65969655     0.01300
C750        C  0.18712227  0.95175371  0.66724388    -0.24200
H751        H  0.16869467  0.83109440  0.73766020     0.09300
H752        H  0.15063243  0.86624743  0.71136211     0.12800
H753        H  0.24583751  0.86861673  0.73672487     0.11600
H754        H  0.25253997  0.91011973  0.71334073     0.12700
H755        H  0.23622678  0.94594767  0.68534307     0.11800
H756        H  0.13705380  0.89594776  0.68553195     0.08900
H757        H  0.12215000  0.93391326  0.66054599     0.12100
H758        H  0.20079039  0.96776481  0.66213325     0.14000
C759        C  0.16021066  0.72807945  0.82075234    -0.01500
C760        C  0.15854591  0.71885152  0.84698486    -0.09500
C761        C  0.13586276  0.70530130  0.85612950    -0.18400
C762        C  0.11409382  0.70015220  0.83911463     0.04000
C763        C  0.11571107  0.71004243  0.81267347     0.18200
C764        C  0.13839158  0.72402971  0.80392167    -0.19800
C765        C  0.09491053  0.70546477  0.79485578    -0.21100
C766        C  0.07242132  0.69129351  0.80268082    -0.19600
C767        C  0.07007368  0.68143206  0.82856894     0.19600
C768        C  0.09085689  0.68551569  0.84721008     0.01700
C769        C  0.08731743  0.67477893  0.87303984    -0.14300
C770        C  0.06376314  0.66142625  0.88019918    -0.12100
C771        C  0.04305530  0.65842215  0.86195785     0.01300
C772        C  0.04670785  0.66792058  0.83600502    -0.24200
H773        H  0.17505214  0.72174724  0.86045111     0.09300
H774        H  0.13613238  0.69874096  0.87649509     0.12800
H775        H  0.13941185  0.73090749  0.78353000     0.11600
H776        H  0.09606936  0.71284369  0.77465549     0.12700
H777        H  0.05664123  0.68816934  0.78839391     0.11800
H778        H  0.10219654  0.67676237  0.88826181     0.08900
H779        H  0.06135694  0.65435696  0.90036228     0.12100
H780        H  0.03095957  0.66522403  0.82157997     0.14000
C781        C  0.35719671  0.15064139  0.03601232    -0.01500
C782        C  0.35641008  0.13273031  0.05735082    -0.09500
C783        C  0.34729429  0.14068755  0.08240410    -0.18400
C784        C  0.33881470  0.16711951  0.08699970     0.04000
C785        C  0.34126893  0.18559595  0.06570363     0.18200
C786        C  0.35040062  0.17729022  0.04072426    -0.19800
C787        C  0.33418988  0.21226049  0.06924500    -0.21100
C788        C  0.32415528  0.22096683  0.09337951    -0.19600
C789        C  0.32071286  0.20317647  0.11450510     0.19600
C790        C  0.32796432  0.17597933  0.11178461     0.01700
C791        C  0.32365110  0.15895614  0.13387096    -0.14300
C792        C  0.31296120  0.16873900  0.15769595    -0.12100
C793        C  0.30605493  0.19565491  0.16017647     0.01300
C794        C  0.30995445  0.21261566  0.13836417    -0.24200
H795        H  0.36208120  0.11223855  0.05467603     0.09300
H796        H  0.34689520  0.12567286  0.09770711     0.12800
H797        H  0.35198970  0.19172835  0.02478440     0.11600
H798        H  0.33622677  0.22647200  0.05314534     0.12700
H799        H  0.31875000  0.24175105  0.09543575     0.11800
H800        H  0.32823174  0.13800496  0.13328859     0.08900
H801        H  0.31004988  0.15517568  0.17419306     0.12100
H802        H  0.30484379  0.23352452  0.13997483     0.14000
C803        C  0.35137889  0.84797687  0.98295000    -0.01500
C804        C  0.34413030  0.82107586  0.98056394    -0.09500
C805        C  0.33102664  0.81172147  0.95803607    -0.18400
C806        C  0.32466720  0.82906927  0.93690403     0.04000
C807        C  0.33382962  0.85584867  0.93845012     0.18200
C808        C  0.34696504  0.86502695  0.96136733    -0.19800
C809        C  0.32939084  0.87337780  0.91729163    -0.21100
C810        C  0.31618279  0.86480276  0.89454473    -0.19600
C811        C  0.30631012  0.83871434  0.89270228     0.19600
C812        C  0.30980360  0.82072118  0.91421088     0.01700
C813        C  0.29788755  0.79526184  0.91227123    -0.14300
C814        C  0.28449312  0.78743394  0.88935076    -0.12100
C815        C  0.28254414  0.80450285  0.86737246     0.01300
C816        C  0.29311606  0.83039631  0.86942813    -0.24200
H817        H  0.34818989  0.80717580  0.99647601     0.09300
H818        H  0.32617112  0.79078621  0.95774203     0.12800
H819        H  0.35266354  0.88573328  0.96274641     0.11600
H820        H  0.33637899  0.89381915  0.91824762     0.12700
H821        H  0.31343346  0.87876483  0.87838248     0.11800
H822        H  0.29845185  0.78094382  0.92820543     0.08900
H823        H  0.27627275  0.76745870  0.88863281     0.12100
H824        H  0.29138364  0.84399096  0.85280395     0.14000
C825        C  0.36555361  0.07029063  0.98947422    -0.01500
C826        C  0.36502869  0.05176859  0.96862940    -0.09500
C827        C  0.36408472  0.02436898  0.97374463    -0.18400
C828        C  0.36365331  0.01450700  0.00007073     0.04000
C829        C  0.36339392  0.03341414  0.02105822     0.18200
C830        C  0.36443119  0.06081646  0.01557910    -0.19800
C831        C  0.36237339  0.02491248  0.04749149    -0.21100
C832        C  0.36205620  0.99793965  0.05363707    -0.19600
C833        C  0.36294082  0.97875893  0.03351583     0.19600
C834        C  0.36373056  0.98669004  0.00642905     0.01700
C835        C  0.36512613  0.96640816  0.98702251    -0.14300
C836        C  0.36582965  0.93951351  0.99425727    -0.12100
C837        C  0.36486708  0.93169809  0.02097629     0.01300
C838        C  0.36344391  0.95164772  0.04046357    -0.24200
H839        H  0.36601939  0.05839918  0.94819714     0.09300
H840        H  0.36389426  0.01143545  0.95668363     0.12800
H841        H  0.36424072  0.07475761  0.03184712     0.11600
H842        H  0.36200040  0.03925035  0.06357279     0.12700
H843        H  0.36141627  0.99203905  0.07432862     0.11800
H844        H  0.36601999  0.97067497  0.96607537     0.08900
H845        H  0.36704048  0.92491145  0.97863337     0.12100
H846        H  0.36350423  0.94622696  0.06127073     0.14000
C847        C  0.57497522  0.13272702  0.00064557    -0.01500
C848        C  0.55904452  0.13540235  0.02350129    -0.09500
C849        C  0.53124401  0.13570850  0.02187686    -0.18400
C850        C  0.51819518  0.13296149  0.99721900     0.04000
C851        C  0.53436775  0.13044769  0.97412000     0.18200
C852        C  0.56227994  0.13064574  0.97600147    -0.19800
C853        C  0.52262940  0.12743257  0.94917322    -0.21100
C854        C  0.49513886  0.12666507  0.94660120    -0.19600
C855        C  0.47862073  0.12911741  0.96887757     0.19600
C856        C  0.48978770  0.13237548  0.99455799     0.01700
C857        C  0.47196876  0.13479304  0.01630126    -0.14300
C858        C  0.44433518  0.13415548  0.01256411    -0.12100
C859        C  0.43353476  0.13120237  0.98714494     0.01300
C860        C  0.45091235  0.12842376  0.96547255    -0.24200
H861        H  0.56793498  0.13658626  0.04298065     0.09300
H862        H  0.52051588  0.13767350  0.04032880     0.12800
H863        H  0.57403637  0.12918760  0.95803201     0.11600
H864        H  0.53481874  0.12545881  0.93149131     0.12700
H865        H  0.48672187  0.12418827  0.92697761     0.11800
H866        H  0.47876655  0.13740818  0.03639147     0.08900
H867        H  0.43137823  0.13660956  0.02960850     0.12100
H868        H  0.44285186  0.12555831  0.94575112     0.14000
C869        C  0.66082348  0.84501671  0.04635543    -0.01500
C870        C  0.66610764  0.86138521  0.06836621    -0.09500
C871        C  0.68009202  0.85185557  0.09023032    -0.18400
C872        C  0.68862414  0.82512300  0.09142870     0.04000
C873        C  0.68134247  0.80793733  0.07022751     0.18200
C874        C  0.66749136  0.81789540  0.04816087    -0.19800
C875        C  0.68782010  0.78085958  0.07122541    -0.21100
C876        C  0.70163791  0.77051854  0.09273226    -0.19600
C877        C  0.70960741  0.78704570  0.11364892     0.19600
C878        C  0.70343243  0.81465423  0.11321829     0.01700
C879        C  0.71233879  0.83053541  0.13464428    -0.14300
C880        C  0.72556296  0.81921511  0.15617940    -0.12100
C881        C  0.73079076  0.79183483  0.15696037     0.01300
C882        C  0.72327235  0.77598686  0.13528307    -0.24200
H883        H  0.65922050  0.88175104  0.06902215     0.09300
H884        H  0.68343731  0.86581834  0.10611907     0.12800
H885        H  0.66177987  0.80434235  0.03244025     0.11600
H886        H  0.68210118  0.76755235  0.05527930     0.12700
H887        H  0.70617556  0.74942756  0.09297575     0.11800
H888        H  0.70924729  0.85174733  0.13546234     0.08900
H889        H  0.73135858  0.83195160  0.17253914     0.12100
H890        H  0.72710800  0.75474536  0.13568807     0.14000
C891        C  0.57184858  0.86693124  0.00799172    -0.01500
C892        C  0.56161545  0.87672876  0.03192883    -0.09500
C893        C  0.53434234  0.87911290  0.03597271    -0.18400
C894        C  0.51605900  0.87155949  0.01609772     0.04000
C895        C  0.52645846  0.86247954  0.99139349     0.18200
C896        C  0.55422690  0.86043092  0.98746989    -0.19800
C897        C  0.50903397  0.85518872  0.97098509    -0.21100
C898        C  0.48154789  0.85650061  0.97464394    -0.19600
C899        C  0.47072448  0.86491072  0.99888770     0.19600
C900        C  0.48787629  0.87252059  0.01998747     0.01700
C901        C  0.47606730  0.88033454  0.04426810    -0.14300
C902        C  0.44853823  0.88026847  0.04754109    -0.12100
C903        C  0.43165322  0.87253097  0.02685641     0.01300
C904        C  0.44284995  0.86529584  0.00238130    -0.24200
H905        H  0.57490123  0.88261724  0.04778879     0.09300
H906        H  0.52830940  0.88685956  0.05497084     0.12800
H907        H  0.56208207  0.85304823  0.96881164     0.11600
H908        H  0.51671591  0.84829268  0.95208310     0.12700
H909        H  0.46865048  0.85060013  0.95847086     0.11800
H910        H  0.48747436  0.88628766  0.06132043     0.08900
H911        H  0.44038706  0.88635818  0.06651708     0.12100
H912        H  0.42989750  0.85909064  0.98635262     0.14000
C913        C  0.63632637  0.92437554  0.98919115    -0.01500
C914        C  0.61294850  0.93753246  0.98190846    -0.09500
C915        C  0.61248982  0.96533390  0.97962436    -0.18400
C916        C  0.63547944  0.98082821  0.98495889     0.04000
C917        C  0.65944148  0.96709946  0.99083466     0.18200
C918        C  0.65971368  0.93926187  0.99243464    -0.19800
C919        C  0.68284289  0.98120360  0.99626405    -0.21100
C920        C  0.68277466  0.00879533  0.99723152    -0.19600
C921        C  0.65933430  0.02293208  0.99266441     0.19600
C922        C  0.63544538  0.00932771  0.98579468     0.01700
C923        C  0.61248998  0.02488365  0.98104925    -0.14300
C924        C  0.61300904  0.05258229  0.98442629    -0.12100
C925        C  0.63631763  0.06551564  0.99255650     0.01300
C926        C  0.65955637  0.05063551  0.99580165    -0.24200
H927        H  0.59459511  0.92647872  0.97925713     0.09300
H928        H  0.59365559  0.97415644  0.97461958     0.12800
H929        H  0.67811356  0.92918986  0.99725233     0.11600
H930        H  0.70117527  0.97079413  0.00059038     0.12700
H931        H  0.70106474  0.01913162  0.00224503     0.11800
H932        H  0.59373410  0.01617883  0.97531261     0.08900
H933        H  0.59485581  0.06377799  0.98163962     0.12100
H934        H  0.67788645  0.06064889  0.00132096     0.14000
C935        C  0.81873828  0.28735349  0.79395570    -0.01500
C936        C  0.83529378  0.27300446  0.81109039    -0.09500
C937        C  0.85740711  0.28522285  0.82303750    -0.18400
C938        C  0.86379520  0.31233316  0.81809053     0.04000
C939        C  0.84643326  0.32693109  0.80136759     0.18200
C940        C  0.82429046  0.31449861  0.78971235    -0.19800
C941        C  0.85150854  0.35380566  0.79582583    -0.21100
C942        C  0.87393793  0.36641669  0.80589570    -0.19600
C943        C  0.89188859  0.35253820  0.82186890     0.19600
C944        C  0.88695334  0.32541644  0.82855488     0.01700
C945        C  0.90573579  0.31255966  0.84490050    -0.14300
C946        C  0.92864429  0.32587920  0.85357872    -0.12100
C947        C  0.93382950  0.35255388  0.84657755     0.01300
C948        C  0.91496566  0.36569808  0.83077652    -0.24200
H949        H  0.83139966  0.25212296  0.81499223     0.09300
H950        H  0.86934144  0.27284411  0.83573957     0.12800
H951        H  0.81157029  0.32606250  0.77679016     0.11600
H952        H  0.83823420  0.36508053  0.78322206     0.12700
H953        H  0.87744096  0.38714074  0.80084538     0.11800
H954        H  0.90343363  0.29211465  0.85108015     0.08900
H955        H  0.94268814  0.31511165  0.86576532     0.12100
H956        H  0.91799944  0.38606824  0.82468869     0.14000
C957        C  0.70230448  0.19522028  0.82556470    -0.01500
C958        C  0.67467093  0.19301094  0.82937166    -0.09500
C959        C  0.66404710  0.18043766  0.85185068    -0.18400
C960        C  0.68078517  0.16983887  0.87166279     0.04000
C961        C  0.70878208  0.17149886  0.86739757     0.18200
C962        C  0.71919068  0.18380275  0.84445407    -0.19800
C963        C  0.72632469  0.16160891  0.88645833    -0.21100
C964        C  0.71677642  0.15117395  0.91021191    -0.19600
C965        C  0.68942140  0.15010438  0.91541629     0.19600
C966        C  0.67090057  0.15861788  0.89597355     0.01700
C967        C  0.64342193  0.15619699  0.90216018    -0.14300
C968        C  0.63489177  0.14741485  0.92723690    -0.12100
C969        C  0.65340181  0.14088080  0.94681005     0.01300
C970        C  0.68056970  0.14135884  0.94038940    -0.24200
H971        H  0.66105872  0.20134824  0.81500780     0.09300
H972        H  0.64265942  0.17991362  0.85346147     0.12800
H973        H  0.74056729  0.18528161  0.84178172     0.11600
H974        H  0.74765216  0.16261787  0.88328871     0.12700
H975        H  0.73094980  0.14440092  0.92487604     0.11800
H976        H  0.62808435  0.16145191  0.88824315     0.08900
H977        H  0.61379965  0.14682974  0.93168583     0.12100
H978        H  0.69499717  0.13548291  0.95521193     0.14000
C979        C  0.78873290  0.16291214  0.71282773    -0.01500
C980        C  0.77511011  0.14636014  0.69506060    -0.09500
C981        C  0.78749472  0.12449970  0.68346209    -0.18400
C982        C  0.81436166  0.11850508  0.68891998     0.04000
C983        C  0.82837262  0.13555683  0.70664699     0.18200
C984        C  0.81535090  0.15727047  0.71881376    -0.19800
C985        C  0.85537162  0.13105528  0.71167634    -0.21100
C986        C  0.86872547  0.10998917  0.69955333    -0.19600
C987        C  0.85531098  0.09249079  0.68246990     0.19600
C988        C  0.82785001  0.09640113  0.67715394     0.01700
C989        C  0.81493277  0.07779380  0.66055265    -0.14300
C990        C  0.82864787  0.05637963  0.64965863    -0.12100
C991        C  0.85583444  0.05243503  0.65452837     0.01300
C992        C  0.86909716  0.07085244  0.67101742    -0.24200
H993        H  0.75459170  0.15042527  0.68997194     0.09300
H994        H  0.77555708  0.11306216  0.66986113     0.12800
H995        H  0.82617834  0.17032995  0.73213195     0.11600
H996        H  0.86631784  0.14405385  0.72494211     0.12700
H997        H  0.88964558  0.10719944  0.70380287     0.11800
H998        H  0.79406221  0.07882275  0.65595929     0.08900
H999        H  0.81770492  0.04236647  0.63745031     0.12100
H1000       H  0.88985578  0.06831591  0.67570913     0.14000
C1001       C  0.86008410  0.27966487  0.19373249    -0.01500
C1002       C  0.88260608  0.28164640  0.20991972    -0.09500
C1003       C  0.90584828  0.29380264  0.20079271    -0.18400
C1004       C  0.90755028  0.30446699  0.17487947     0.04000
C1005       C  0.88522151  0.30129159  0.15793354     0.18200
C1006       C  0.86166407  0.28922253  0.16752861    -0.19800
C1007       C  0.88657547  0.31031429  0.13162137    -0.21100
C1008       C  0.90968617  0.32231610  0.12177627    -0.19600
C1009       C  0.93182002  0.32619521  0.13816613     0.19600
C1010       C  0.93078011  0.31779813  0.16513753     0.01700
C1011       C  0.95301131  0.32325114  0.18132169    -0.14300
C1012       C  0.97589246  0.33486495  0.17080800    -0.12100
C1013       C  0.97757001  0.34161764  0.14388203     0.01300
C1014       C  0.95517273  0.33803381  0.12775941    -0.24200
H1015       H  0.88215696  0.27431155  0.23014217     0.09300
H1016       H  0.92218316  0.29436593  0.21455625     0.12800
H1017       H  0.84449494  0.28752705  0.15466864     0.11600
H1018       H  0.86971913  0.30785527  0.11848491     0.12700
H1019       H  0.91020496  0.32871747  0.10123197     0.11800
H1020       H  0.95341712  0.31882666  0.20223544     0.08900
H1021       H  0.99264371  0.33830054  0.18386413     0.12100
H1022       H  0.95625210  0.34348504  0.10696606     0.14000
C1023       C  0.66373160  0.14633447  0.04660884    -0.01500
C1024       C  0.66676220  0.13140306  0.06999198    -0.09500
C1025       C  0.68145676  0.14121130  0.09131470    -0.18400
C1026       C  0.69321370  0.16682297  0.09043446     0.04000
C1027       C  0.68873295  0.18265777  0.06752199     0.18200
C1028       C  0.67385380  0.17252102  0.04619073    -0.19800
C1029       C  0.69905082  0.20858453  0.06604945    -0.21100
C1030       C  0.71363130  0.21921174  0.08696311    -0.19600
C1031       C  0.71840187  0.20412380  0.10981947     0.19600
C1032       C  0.70855757  0.17757606  0.11175541     0.01700
C1033       C  0.71432960  0.16303546  0.13505874    -0.14300
C1034       C  0.72805169  0.17478886  0.15604567    -0.12100
C1035       C  0.73686788  0.20126245  0.15450281     0.01300
C1036       C  0.73248735  0.21563228  0.13102311    -0.24200
H1037       H  0.65758266  0.11199087  0.07213193     0.09300
H1038       H  0.68288055  0.12834345  0.10836017     0.12800
H1039       H  0.67020245  0.18519973  0.02920637     0.11600
H1040       H  0.69569423  0.22080186  0.04864576     0.12700
H1041       H  0.72110836  0.23943961  0.08530212     0.11800
H1042       H  0.70832847  0.14259068  0.13783453     0.08900
H1043       H  0.73142893  0.16310862  0.17379185     0.12100
H1044       H  0.73924181  0.23613452  0.12955016     0.14000
C1045       C  0.85560161  0.04594698  0.34770807    -0.01500
C1046       C  0.87002108  0.06982092  0.35072292    -0.09500
C1047       C  0.86247625  0.09316011  0.33761952    -0.18400
C1048       C  0.83952552  0.09383299  0.32151221     0.04000
C1049       C  0.82369299  0.07033900  0.32018788     0.18200
C1050       C  0.83167950  0.04691351  0.33325728    -0.19800
C1051       C  0.79994478  0.07029205  0.30573973    -0.21100
C1052       C  0.79170752  0.09299962  0.29231094    -0.19600
C1053       C  0.80715766  0.11627838  0.29267992     0.19600
C1054       C  0.83141001  0.11703010  0.30710032     0.01700
C1055       C  0.84649239  0.14091497  0.30628699    -0.14300
C1056       C  0.83746348  0.16327612  0.29243068    -0.12100
C1057       C  0.81320668  0.16266899  0.27879065     0.01300
C1058       C  0.79833125  0.13889377  0.27882582    -0.24200
H1059       H  0.88768078  0.07038169  0.36295105     0.09300
H1060       H  0.87492859  0.11041703  0.34066573     0.12800
H1061       H  0.81883496  0.02961686  0.33225453     0.11600
H1062       H  0.78762878  0.05253212  0.30479536     0.12700
H1063       H  0.77317034  0.09228440  0.28140273     0.11800
H1064       H  0.86538915  0.14293626  0.31612959     0.08900
H1065       H  0.84946391  0.18125615  0.29268377     0.12100
H1066       H  0.77954637  0.13802650  0.26834146     0.14000
C1067       C  0.20632871  0.82763908  0.31461512    -0.01500
C1068       C  0.20422605  0.83229000  0.34198925    -0.09500
C1069       C  0.19172991  0.85505717  0.35176492    -0.18400
C1070       C  0.18114026  0.87435506  0.33438913     0.04000
C1071       C  0.18315344  0.86953678  0.30660542     0.18200
C1072       C  0.19525291  0.84617057  0.29703479    -0.19800
C1073       C  0.17380929  0.88845239  0.28852018    -0.21100
C1074       C  0.16352967  0.91254806  0.29738349    -0.19600
C1075       C  0.16175959  0.91806510  0.32457069     0.19600
C1076       C  0.16961980  0.89871289  0.34353058     0.01700
C1077       C  0.16608393  0.90489307  0.37077403    -0.14300
C1078       C  0.15694445  0.92994167  0.37878225    -0.12100
C1079       C  0.15119139  0.94952615  0.35998745     0.01300
C1080       C  0.15280814  0.94315067  0.33291280    -0.24200
H1081       H  0.21244414  0.81827099  0.35606891     0.09300
H1082       H  0.19133771  0.85730514  0.37302661     0.12800
H1083       H  0.19683905  0.84287323  0.27581985     0.11600
H1084       H  0.17517297  0.88491798  0.26733715     0.12700
H1085       H  0.15723553  0.92712424  0.28284848     0.11800
H1086       H  0.17051224  0.89092530  0.38637023     0.08900
H1087       H  0.15544595  0.93436408  0.39976745     0.12100
H1088       H  0.14754198  0.95801565  0.31823361     0.14000
C1089       C  0.34892035  0.85202330  0.08244056    -0.01500
C1090       C  0.32219858  0.85755971  0.08861619    -0.09500
C1091       C  0.30968641  0.84625700  0.11088457    -0.18400
C1092       C  0.32338203  0.82846082  0.12773448     0.04000
C1093       C  0.35012571  0.82222434  0.12100400     0.18200
C1094       C  0.36236387  0.83363953  0.09860112    -0.19800
C1095       C  0.36462252  0.80434389  0.13652458    -0.21100
C1096       C  0.35326854  0.79267423  0.15883820    -0.19600
C1097       C  0.32707529  0.79849280  0.16620742     0.19600
C1098       C  0.31160287  0.81635847  0.15079864     0.01700
C1099       C  0.28514821  0.82124132  0.15927636    -0.14300
C1100       C  0.27466503  0.80894938  0.18208788    -0.12100
C1101       C  0.29014984  0.79148949  0.19725233     0.01300
C1102       C  0.31635477  0.78642206  0.18901357    -0.24200
H1103       H  0.31077506  0.87064578  0.07597463     0.09300
H1104       H  0.28922099  0.85165443  0.11427125     0.12800
H1105       H  0.38219705  0.82717140  0.09356662     0.11600
H1106       H  0.38498905  0.79940605  0.13143077     0.12700
H1107       H  0.36511882  0.77899693  0.17046508     0.11800
H1108       H  0.27210754  0.83450223  0.14872648     0.08900
H1109       H  0.25436114  0.81322645  0.18790576     0.12100
H1110       H  0.32861259  0.77287850  0.20038354     0.14000
C1111       C  0.17186759  0.70902432  0.23616817    -0.01500
C1112       C  0.15729401  0.68848573  0.24825852    -0.09500
C1113       C  0.13573449  0.67671716  0.23543994    -0.18400
C1114       C  0.12821401  0.68487797  0.20969253     0.04000
C1115       C  0.14299720  0.70586287  0.19751995     0.18200
C1116       C  0.16433774  0.71798187  0.21096376    -0.19800
C1117       C  0.13673692  0.71423059  0.17180239    -0.21100
C1118       C  0.11630363  0.70197664  0.15774815    -0.19600
C1119       C  0.10139847  0.68124908  0.16916695     0.19600
C1120       C  0.10688044  0.67266973  0.19544325     0.01700
C1121       C  0.09060740  0.65239723  0.20638643    -0.14300
C1122       C  0.07012950  0.64087393  0.19171401    -0.12100
C1123       C  0.06527623  0.64852256  0.16538990     0.01300
C1124       C  0.08084944  0.66923964  0.15448248    -0.24200
H1125       H  0.16271304  0.68130991  0.26778290     0.09300
H1126       H  0.12578850  0.66089434  0.24603751     0.12800
H1127       H  0.17572751  0.73370449  0.20138695     0.11600
H1128       H  0.14792892  0.73015996  0.16236249     0.12700
H1129       H  0.11214039  0.70876548  0.13777168     0.11800
H1130       H  0.09285653  0.64522063  0.22639037     0.08900
H1131       H  0.05780646  0.62581164  0.20114717     0.12100
H1132       H  0.07672723  0.67692021  0.13492170     0.14000
C1133       C  0.27920868  0.21804238  0.83052297    -0.01500
C1134       C  0.30592997  0.22454708  0.83541118    -0.09500
C1135       C  0.31995953  0.21272592  0.85595234    -0.18400
C1136       C  0.30781974  0.19372481  0.87277067     0.04000
C1137       C  0.28062803  0.18719171  0.86816896     0.18200
C1138       C  0.26657275  0.19931061  0.84712696    -0.19800
C1139       C  0.26776231  0.16860834  0.88461666    -0.21100
C1140       C  0.28127930  0.15650841  0.90551179    -0.19600
C1141       C  0.30811316  0.16244518  0.91036748     0.19600
C1142       C  0.32175749  0.18106217  0.89397620     0.01700
C1143       C  0.34877202  0.18637897  0.89963418    -0.14300
C1144       C  0.36175191  0.17370220  0.92046005    -0.12100
C1145       C  0.34859672  0.15483456  0.93649129     0.01300
C1146       C  0.32142374  0.14989632  0.93152792    -0.24200
H1147       H  0.31637557  0.23894841  0.82313946     0.09300
H1148       H  0.34035061  0.21900762  0.85801424     0.12800
H1149       H  0.24595808  0.19400371  0.84358045     0.11600
H1150       H  0.24706819  0.16344859  0.88135657     0.12700
H1151       H  0.27068474  0.14230382  0.91790010     0.11800
H1152       H  0.36056974  0.20046155  0.88850430     0.08900
H1153       H  0.38200501  0.17974054  0.92412444     0.12100
H1154       H  0.31059105  0.13612059  0.94419984     0.14000
C1155       C  0.03408200  0.34853125  0.84657764    -0.01500
C1156       C  0.03564691  0.32110024  0.84139978    -0.09500
C1157       C  0.05906592  0.30966335  0.83182508    -0.18400
C1158       C  0.08201203  0.32534025  0.82702754     0.04000
C1159       C  0.08077271  0.35293808  0.83342627     0.18200
C1160       C  0.05701857  0.36419607  0.84317239    -0.19800
C1161       C  0.10308925  0.36927980  0.82950471    -0.21100
C1162       C  0.12639418  0.35901303  0.81869485    -0.19600
C1163       C  0.12802692  0.33212217  0.81153105     0.19600
C1164       C  0.10599611  0.31475343  0.81585565     0.01700
C1165       C  0.10888861  0.28767630  0.80844689    -0.14300
C1166       C  0.13262913  0.27834952  0.79730145    -0.12100
C1167       C  0.15405351  0.29568261  0.79273779     0.01300
C1168       C  0.15157480  0.32255517  0.79986504    -0.24200
H1169       H  0.01856547  0.30826632  0.84466162     0.09300
H1170       H  0.05845556  0.28852758  0.82816021     0.12800
H1171       H  0.05616297  0.38540576  0.84706961     0.11600
H1172       H  0.10241050  0.39026373  0.83451968     0.12700
H1173       H  0.14320204  0.37229775  0.81565693     0.11800
H1174       H  0.09316029  0.27321639  0.81087986     0.08900
H1175       H  0.13403855  0.25756345  0.79169504     0.12100
H1176       H  0.16816233  0.33606040  0.79648921     0.14000
C1177       C  0.15020882  0.05372027  0.66526059    -0.01500
C1178       C  0.14218498  0.07745099  0.65301107    -0.09500
C1179       C  0.14884733  0.10213650  0.66366347    -0.18400
C1180       C  0.16333961  0.10402620  0.68753084     0.04000
C1181       C  0.16918893  0.08012366  0.70133943     0.18200
C1182       C  0.16268243  0.05533768  0.69017524    -0.19800
C1183       C  0.18157841  0.08110930  0.72617632    -0.21100
C1184       C  0.18887464  0.10541150  0.73729331    -0.19600
C1185       C  0.18472082  0.12919626  0.72344002     0.19600
C1186       C  0.17211800  0.12878660  0.69820208     0.01700
C1187       C  0.16990340  0.15302674  0.68414045    -0.14300
C1188       C  0.18015721  0.17655878  0.69452818    -0.12100
C1189       C  0.19234029  0.17687324  0.71940719     0.01300
C1190       C  0.19405946  0.15331461  0.73412650    -0.24200
H1191       H  0.13089117  0.07692102  0.63474755     0.09300
H1192       H  0.14201198  0.11934847  0.65292873     0.12800
H1193       H  0.16698530  0.03757341  0.70142441     0.11600
H1194       H  0.18576446  0.06296094  0.73702393     0.12700
H1195       H  0.19854814  0.10553658  0.75648160     0.11800
H1196       H  0.16144329  0.15430653  0.66457537     0.08900
H1197       H  0.17894479  0.19463314  0.68281684     0.12100
H1198       H  0.20406680  0.15350983  0.75315957     0.14000
C1199       C  0.65348484  0.21281642  0.69399181    -0.01500
C1200       C  0.62994798  0.22751060  0.69385042    -0.09500
C1201       C  0.60718484  0.21747294  0.68159403    -0.18400
C1202       C  0.60708886  0.19188865  0.66977444     0.04000
C1203       C  0.63075297  0.17661548  0.67085867     0.18200
C1204       C  0.65393307  0.18753578  0.68210397    -0.19800
C1205       C  0.63075998  0.15024686  0.66165518    -0.21100
C1206       C  0.60734328  0.13833950  0.65262038    -0.19600
C1207       C  0.58372955  0.15297547  0.65121096     0.19600
C1208       C  0.58385511  0.18041252  0.65830252     0.01700
C1209       C  0.56064554  0.19526897  0.65374432    -0.14300
C1210       C  0.53739611  0.18282739  0.64548279    -0.12100
C1211       C  0.53617329  0.15509430  0.64195619     0.01300
C1212       C  0.55979426  0.14039772  0.64344469    -0.24200
H1213       H  0.62917928  0.24691771  0.70322979     0.09300
H1214       H  0.58962499  0.22968751  0.68273628     0.12800
H1215       H  0.67201554  0.17584774  0.68277945     0.11600
H1216       H  0.64872314  0.13841723  0.66248407     0.12700
H1217       H  0.60768961  0.11756708  0.64677466     0.11800
H1218       H  0.55992153  0.21659249  0.65627319     0.08900
H1219       H  0.52000688  0.19509501  0.64242531     0.12100
H1220       H  0.55935370  0.11913385  0.63971077     0.14000
C1221       C  0.43636556  0.15373630  0.65193018    -0.01500
C1222       C  0.43734803  0.16515032  0.67739196    -0.09500
C1223       C  0.41597295  0.17954901  0.68754201    -0.18400
C1224       C  0.39224318  0.18237910  0.67295099     0.04000
C1225       C  0.39016030  0.16856513  0.64844740     0.18200
C1226       C  0.41199233  0.15432673  0.63830962    -0.19800
C1227       C  0.36632535  0.16914805  0.63416608    -0.21100
C1228       C  0.34447212  0.18314082  0.64377576    -0.19600
C1229       C  0.34613384  0.19746906  0.66755294     0.19600
C1230       C  0.37025412  0.19775659  0.68218798     0.01700
C1231       C  0.37139748  0.21359937  0.70533278    -0.14300
C1232       C  0.34911179  0.22738370  0.71432764    -0.12100
C1233       C  0.32492253  0.22599679  0.70062074     0.01300
C1234       C  0.32373243  0.21132580  0.67694380    -0.24200
H1235       H  0.45471826  0.16309644  0.68979516     0.09300
H1236       H  0.41849410  0.18783491  0.70710293     0.12800
H1237       H  0.41004075  0.14400692  0.61953490     0.11600
H1238       H  0.36450212  0.15854261  0.61552486     0.12700
H1239       H  0.32619774  0.18290837  0.63242548     0.11800
H1240       H  0.38926281  0.21585581  0.71688820     0.08900
H1241       H  0.35077540  0.23878665  0.73249832     0.12100
H1242       H  0.30522757  0.21030019  0.66599284     0.14000
C1243       C  0.44803608  0.84466090  0.66168956    -0.01500
C1244       C  0.44222740  0.85447444  0.68716525    -0.09500
C1245       C  0.42164871  0.84377989  0.70242760    -0.18400
C1246       C  0.40647417  0.82197031  0.69323832     0.04000
C1247       C  0.41392126  0.81025742  0.66864062     0.18200
C1248       C  0.43445537  0.82164744  0.65311139    -0.19800
C1249       C  0.40076206  0.78729245  0.65973300    -0.21100
C1250       C  0.37974764  0.77632088  0.67427089    -0.19600
C1251       C  0.37095779  0.78836837  0.69778580     0.19600
C1252       C  0.38427537  0.81134937  0.70764318     0.01700
C1253       C  0.37421309  0.82329203  0.73100675    -0.14300
C1254       C  0.35155890  0.81325287  0.74363887    -0.12100
C1255       C  0.33822350  0.79080389  0.73375523     0.01300
C1256       C  0.34842613  0.77807693  0.71109595    -0.24200
H1257       H  0.45370754  0.87070368  0.69552944     0.09300
H1258       H  0.41846424  0.85278288  0.72157297     0.12800
H1259       H  0.43997942  0.81229139  0.63455464     0.11600
H1260       H  0.40659951  0.77788041  0.64126549     0.12700
H1261       H  0.36983206  0.75869737  0.66668039     0.11800
H1262       H  0.38284184  0.84096210  0.73959358     0.08900
H1263       H  0.34425594  0.82341028  0.76116247     0.12100
H1264       H  0.33822408  0.76075375  0.70318363     0.14000
C1265       C  0.49591450  0.92834121  0.63314655    -0.01500
C1266       C  0.51926704  0.94275978  0.63811021    -0.09500
C1267       C  0.51935994  0.97077037  0.63699459    -0.18400
C1268       C  0.49596709  0.98513921  0.63062332     0.04000
C1269       C  0.47271946  0.97011079  0.62452176     0.18200
C1270       C  0.47296617  0.94220393  0.62573636    -0.19800
C1271       C  0.44905699  0.98295197  0.61775095    -0.21100
C1272       C  0.44760219  0.01054220  0.61769091    -0.19600
C1273       C  0.46979270  0.02603716  0.62432029     0.19600
C1274       C  0.49448481  0.01372632  0.63044898     0.01700
C1275       C  0.51632546  0.03065734  0.63639677    -0.14300
C1276       C  0.51350272  0.05849930  0.63673175    -0.12100
C1277       C  0.48884276  0.07027233  0.63160290     0.01300
C1278       C  0.46722012  0.05386713  0.62508060    -0.24200
H1279       H  0.53724991  0.93238743  0.64369933     0.09300
H1280       H  0.53785372  0.98065888  0.64161388     0.12800
H1281       H  0.45495567  0.93111480  0.62124982     0.11600
H1282       H  0.43136819  0.97154679  0.61287853     0.12700
H1283       H  0.42883647  0.01983769  0.61273780     0.11800
H1284       H  0.53574968  0.02293704  0.64098705     0.08900
H1285       H  0.53052328  0.07085848  0.64159923     0.12100
H1286       H  0.44822531  0.06287834  0.62041741     0.14000
C1287       C  0.35635542  0.20737570  0.29544375    -0.01500
C1288       C  0.36044946  0.17975400  0.29572970    -0.09500
C1289       C  0.38255142  0.16879658  0.30809049    -0.18400
C1290       C  0.40169900  0.18517484  0.32050705     0.04000
C1291       C  0.39781062  0.21323591  0.31987791     0.18200
C1292       C  0.37502727  0.22403183  0.30784207    -0.19800
C1293       C  0.41704078  0.23032275  0.33064486    -0.21100
C1294       C  0.44051691  0.22017309  0.34108439    -0.19600
C1295       C  0.44489751  0.19264460  0.34186381     0.19600
C1296       C  0.42504823  0.17471088  0.33260517     0.01700
C1297       C  0.42955464  0.14705727  0.33565366    -0.14300
C1298       C  0.45353317  0.13764050  0.34574550    -0.12100
C1299       C  0.47376273  0.15536622  0.35287093     0.01300
C1300       C  0.46917645  0.18286252  0.35146881    -0.24200
H1301       H  0.34645950  0.16634535  0.28625650     0.09300
H1302       H  0.38442455  0.14745537  0.30690332     0.12800
H1303       H  0.37222950  0.24543729  0.30749727     0.11600
H1304       H  0.41425907  0.25172251  0.33028875     0.12700
H1305       H  0.45539343  0.23395187  0.34850803     0.11800
H1306       H  0.41495976  0.13218704  0.33043495     0.08900
H1307       H  0.45663978  0.11633180  0.34706415     0.12100
H1308       H  0.48463090  0.19662618  0.35770862     0.14000
C1309       C  0.57363905  0.15334073  0.34899518    -0.01500
C1310       C  0.57948311  0.18003289  0.35532815    -0.09500
C1311       C  0.60170345  0.19314344  0.34457992    -0.18400
C1312       C  0.61895367  0.18006041  0.32667191     0.04000
C1313       C  0.61315072  0.15301245  0.32043189     0.18200
C1314       C  0.59091369  0.14005575  0.33151790    -0.19800
C1315       C  0.62933839  0.13897238  0.30272146    -0.21100
C1316       C  0.65103737  0.15124632  0.29076161    -0.19600
C1317       C  0.65720737  0.17787062  0.29625078     0.19600
C1318       C  0.64148223  0.19275945  0.31437865     0.01700
C1319       C  0.64900304  0.21962347  0.31910235    -0.14300
C1320       C  0.67112185  0.23108833  0.30621622    -0.12100
C1321       C  0.68640599  0.21619368  0.28826428     0.01300
C1322       C  0.67914127  0.18958282  0.28351724    -0.24200
H1323       H  0.56648982  0.19097263  0.36857755     0.09300
H1324       H  0.60466902  0.21360732  0.35038936     0.12800
H1325       H  0.58709459  0.11978275  0.32559000     0.11600
H1326       H  0.62506744  0.11834775  0.29789172     0.12700
H1327       H  0.66305194  0.13981259  0.27699529     0.11800
H1328       H  0.63820019  0.23223325  0.33265194     0.08900
H1329       H  0.67629401  0.25163077  0.31038555     0.12100
H1330       H  0.69069466  0.17766479  0.26975869     0.14000
C1331       C  0.51696080  0.13338673  0.43010688    -0.01500
C1332       C  0.49055405  0.13560081  0.43880010    -0.09500
C1333       C  0.48436078  0.13593757  0.46580472    -0.18400
C1334       C  0.50455392  0.13432379  0.48519205     0.04000
C1335       C  0.53138657  0.13301694  0.47631331     0.18200
C1336       C  0.53728339  0.13216064  0.44907972    -0.19800
C1337       C  0.55222039  0.13264162  0.49465812    -0.21100
C1338       C  0.54698003  0.13347989  0.52174472    -0.19600
C1339       C  0.52075643  0.13399155  0.53115452     0.19600
C1340       C  0.49913490  0.13414377  0.51302678     0.01700
C1341       C  0.47304109  0.13363694  0.52356593    -0.14300
C1342       C  0.46865971  0.13325734  0.55088686    -0.12100
C1343       C  0.49001034  0.13362547  0.56870197     0.01300
C1344       C  0.51603407  0.13406969  0.55864620    -0.24200
H1345       H  0.47446752  0.13759884  0.42474235     0.09300
H1346       H  0.46361382  0.13796299  0.47082087     0.12800
H1347       H  0.55781057  0.13026689  0.44274489     0.11600
H1348       H  0.57274001  0.13186344  0.48800512     0.12700
H1349       H  0.56355635  0.13332410  0.53544077     0.11800
H1350       H  0.45557421  0.13294248  0.51126383     0.08900
H1351       H  0.44833695  0.13218192  0.55803601     0.12100
H1352       H  0.53273137  0.13467137  0.57217283     0.14000
C1353       C  0.56313001  0.84881502  0.34851064    -0.01500
C1354       C  0.57557151  0.86043698  0.32628361    -0.09500
C1355       C  0.59694779  0.84818529  0.31363839    -0.18400
C1356       C  0.60670839  0.82336146  0.32234713     0.04000
C1357       C  0.59341415  0.81076648  0.34391344     0.18200
C1358       C  0.57187327  0.82345199  0.35665574    -0.19800
C1359       C  0.60161216  0.78552453  0.35244778    -0.21100
C1360       C  0.62289577  0.77266911  0.34014169    -0.19600
C1361       C  0.63679933  0.78486647  0.31921265     0.19600
C1362       C  0.62893566  0.81048643  0.31014439     0.01700
C1363       C  0.64393882  0.82236096  0.28950096    -0.14300
C1364       C  0.66571213  0.80943840  0.27833553    -0.12100
C1365       C  0.67350049  0.78413793  0.28710552     0.01300
C1366       C  0.65875751  0.77182840  0.30750281    -0.24200
H1367       H  0.56847909  0.87871097  0.31762150     0.09300
H1368       H  0.60497262  0.85850243  0.29663453     0.12800
H1369       H  0.56171329  0.81345929  0.37289314     0.11600
H1370       H  0.59147627  0.77563220  0.36875320     0.12700
H1371       H  0.62870457  0.75316579  0.34724483     0.11800
H1372       H  0.63973758  0.84188956  0.28176506     0.08900
H1373       H  0.67663351  0.81955611  0.26269395     0.12100
H1374       H  0.66468842  0.75237717  0.31466394     0.14000
C1375       C  0.46377660  0.84554680  0.35884839    -0.01500
C1376       C  0.44303989  0.84565835  0.37756482    -0.09500
C1377       C  0.41888182  0.83251037  0.37241495    -0.18400
C1378       C  0.41484731  0.81853632  0.34833119     0.04000
C1379       C  0.43595035  0.81874234  0.32946012     0.18200
C1380       C  0.45956749  0.83261792  0.33455613    -0.19800
C1381       C  0.43365955  0.80481213  0.30556972    -0.21100
C1382       C  0.41074582  0.79059017  0.29984269    -0.19600
C1383       C  0.38930244  0.79045097  0.31758153     0.19600
C1384       C  0.39080998  0.80442865  0.34207041     0.01700
C1385       C  0.36803133  0.80396516  0.35875632    -0.14300
C1386       C  0.34456297  0.79091008  0.35089951    -0.12100
C1387       C  0.34325744  0.77756109  0.32646577     0.01300
C1388       C  0.36604238  0.77695178  0.31036539    -0.24200
H1389       H  0.44561022  0.85531356  0.39654013     0.09300
H1390       H  0.40394547  0.83315719  0.38781849     0.12800
H1391       H  0.47488549  0.83307454  0.31937310     0.11600
H1392       H  0.44980742  0.80477043  0.29123572     0.12700
H1393       H  0.40962271  0.77997823  0.28114029     0.11800
H1394       H  0.36755531  0.81410394  0.37761078     0.08900
H1395       H  0.32725182  0.79175432  0.36373848     0.12100
H1396       H  0.36544707  0.76677677  0.29139182     0.14000
C1397       C  0.51283481  0.87238718  0.43331070    -0.01500
C1398       C  0.53524195  0.87384535  0.44977762    -0.09500
C1399       C  0.53272242  0.87327162  0.47731910    -0.18400
C1400       C  0.50749527  0.87138873  0.48962515     0.04000
C1401       C  0.48466450  0.87179638  0.47307837     0.18200
C1402       C  0.48750369  0.87210417  0.44523474    -0.19800
C1403       C  0.45917874  0.87159617  0.48446005    -0.21100
C1404       C  0.45592202  0.87060358  0.51192319    -0.19600
C1405       C  0.47804889  0.86908399  0.52868363     0.19600
C1406       C  0.50415893  0.86922205  0.51773164     0.01700
C1407       C  0.52581599  0.86655266  0.53534952    -0.14300
C1408       C  0.52176923  0.86455253  0.56267552    -0.12100
C1409       C  0.49611767  0.86519378  0.57354115     0.01300
C1410       C  0.47426687  0.86729566  0.55635011    -0.24200
H1411       H  0.55504925  0.87554772  0.44143850     0.09300
H1412       H  0.55095690  0.87457992  0.48841770     0.12800
H1413       H  0.46989503  0.87141057  0.43301542     0.11600
H1414       H  0.44163441  0.87220532  0.47203559     0.12700
H1415       H  0.43593530  0.87055521  0.52008859     0.11800
H1416       H  0.54615784  0.86547069  0.52863555     0.08900
H1417       H  0.53894627  0.86219511  0.57535009     0.12100
H1418       H  0.45428610  0.86798981  0.56448519     0.14000
C1419       C  0.50528230  0.93063755  0.36481460    -0.01500
C1420       C  0.49530944  0.94446663  0.38681602    -0.09500
C1421       C  0.49365191  0.97233283  0.38659902    -0.18400
C1422       C  0.50220480  0.98734484  0.36428812     0.04000
C1423       C  0.51056832  0.97305939  0.34139445     0.18200
C1424       C  0.51183576  0.94509481  0.34180678    -0.19800
C1425       C  0.51867731  0.98677284  0.31852874    -0.21100
C1426       C  0.52005339  0.01443919  0.31831800    -0.19600
C1427       C  0.51349600  0.02910298  0.34101303     0.19600
C1428       C  0.50382158  0.01588198  0.36414176     0.01700
C1429       C  0.49734870  0.03178574  0.38642289    -0.14300
C1430       C  0.50164734  0.05936368  0.38616667    -0.12100
C1431       C  0.51242190  0.07206315  0.36377538     0.01300
C1432       C  0.51756084  0.05685778  0.34100548    -0.24200
H1433       H  0.49001719  0.93387175  0.40481859     0.09300
H1434       H  0.48638240  0.98157857  0.40449076     0.12800
H1435       H  0.51887919  0.93457071  0.32437038     0.11600
H1436       H  0.52474736  0.97599012  0.30089638     0.12700
H1437       H  0.52711865  0.02439726  0.30052254     0.11800
H1438       H  0.48968424  0.02341553  0.40462207     0.08900
H1439       H  0.49756847  0.07060738  0.40405503     0.12100
H1440       H  0.52541219  0.06658689  0.32339915     0.14000
C1441       C  0.65686300  0.54490074  0.14774747    -0.01500
C1442       C  0.65912504  0.54579764  0.17548341    -0.09500
C1443       C  0.66689720  0.56910768  0.18851229    -0.18400
C1444       C  0.67308943  0.59253223  0.17416010     0.04000
C1445       C  0.67027257  0.59174535  0.14602617     0.18200
C1446       C  0.66178650  0.56819455  0.13316918    -0.19800
C1447       C  0.67681402  0.61421463  0.13083513    -0.21100
C1448       C  0.68700736  0.63706855  0.14280421    -0.19600
C1449       C  0.69052921  0.63826713  0.17035516     0.19600
C1450       C  0.68286469  0.61635701  0.18657148     0.01700
C1451       C  0.68583839  0.61916041  0.21441791    -0.14300
C1452       C  0.69728121  0.64212723  0.22548081    -0.12100
C1453       C  0.70634314  0.66296077  0.20925095     0.01300
C1454       C  0.70226467  0.66107410  0.18171318    -0.24200
H1455       H  0.65511489  0.52814551  0.18725139     0.09300
H1456       H  0.66857808  0.56791638  0.20979109     0.12800
H1457       H  0.66029130  0.56762333  0.11171207     0.11600
H1458       H  0.67468053  0.61388234  0.10943995     0.12700
H1459       H  0.69251119  0.65384157  0.13034724     0.11800
H1460       H  0.67974095  0.60384257  0.22817760     0.08900
H1461       H  0.69986137  0.64317458  0.24678843     0.12100
H1462       H  0.70863811  0.67731771  0.16894520     0.14000
C1463       C  0.72336319  0.33175366  0.20224918    -0.01500
C1464       C  0.70878351  0.34943426  0.21804400    -0.09500
C1465       C  0.69633684  0.37158436  0.20678489    -0.18400
C1466       C  0.69807970  0.37676012  0.17917215     0.04000
C1467       C  0.71223990  0.35829229  0.16318037     0.18200
C1468       C  0.72464606  0.33620253  0.17474921    -0.19800
C1469       C  0.71423836  0.36208602  0.13571990    -0.21100
C1470       C  0.70300865  0.38427988  0.12377497    -0.19600
C1471       C  0.68953251  0.40328844  0.13898794     0.19600
C1472       C  0.68660603  0.39966443  0.16685855     0.01700
C1473       C  0.67256254  0.41927717  0.18117797    -0.14300
C1474       C  0.66220476  0.44158252  0.16844252    -0.12100
C1475       C  0.66554840  0.44559611  0.14101851     0.01300
C1476       C  0.67912813  0.42599330  0.12640853    -0.24200
H1477       H  0.70724824  0.34635450  0.23927557     0.09300
H1478       H  0.68568792  0.38435623  0.22027399     0.12800
H1479       H  0.73552278  0.32247773  0.16217354     0.11600
H1480       H  0.72482239  0.34791646  0.12340362     0.12700
H1481       H  0.70515080  0.38674034  0.10249654     0.11800
H1482       H  0.66927134  0.41805629  0.20228009     0.08900
H1483       H  0.65150486  0.45608142  0.18025131     0.12100
H1484       H  0.68171193  0.42788203  0.10523832     0.14000
C1485       C  0.64463709  0.45077645  0.84001480    -0.01500
C1486       C  0.63177627  0.42644355  0.84551721    -0.09500
C1487       C  0.64005819  0.40274940  0.83357370    -0.18400
C1488       C  0.66216609  0.40235688  0.81616403     0.04000
C1489       C  0.67664967  0.42649038  0.81258521     0.18200
C1490       C  0.66802581  0.45015823  0.82463533    -0.19800
C1491       C  0.69963007  0.42697679  0.79682276    -0.21100
C1492       C  0.70838066  0.40404545  0.78417973    -0.19600
C1493       C  0.69423075  0.38010586  0.78676673     0.19600
C1494       C  0.67078031  0.37887830  0.80259410     0.01700
C1495       C  0.65697749  0.35425666  0.80395483    -0.14300
C1496       C  0.66672685  0.33161148  0.79105312    -0.12100
C1497       C  0.69039670  0.33275121  0.77626035     0.01300
C1498       C  0.70370439  0.35727344  0.77384263    -0.24200
H1499       H  0.61482922  0.42572063  0.85883416     0.09300
H1500       H  0.62884896  0.38505049  0.83848260     0.12800
H1501       H  0.67984988  0.46802230  0.82198058     0.11600
H1502       H  0.71090354  0.44526083  0.79418764     0.12700
H1503       H  0.72630673  0.40508060  0.77217779     0.11800
H1504       H  0.63864392  0.35184781  0.81488296     0.08900
H1505       H  0.65590361  0.31300625  0.79311220     0.12100
H1506       H  0.72194323  0.35854862  0.76232855     0.14000
C1507       C  0.63674262  0.51103807  0.92002582    -0.01500
C1508       C  0.61747738  0.52442340  0.93510327    -0.09500
C1509       C  0.61966274  0.52640017  0.96276850    -0.18400
C1510       C  0.64144015  0.51505689  0.97636741     0.04000
C1511       C  0.66209493  0.50369072  0.96076190     0.18200
C1512       C  0.65968292  0.50200477  0.93302670    -0.19800
C1513       C  0.68464703  0.49308003  0.97296876    -0.21100
C1514       C  0.68663028  0.49236748  0.00045427    -0.19600
C1515       C  0.66598569  0.50197735  0.01647324     0.19600
C1516       C  0.64322399  0.51382946  0.00476469     0.01700
C1517       C  0.62283384  0.52278278  0.02201849    -0.14300
C1518       C  0.62448280  0.51895329  0.04953896    -0.12100
C1519       C  0.64660443  0.50645205  0.06091353     0.01300
C1520       C  0.66764319  0.49885359  0.04414996    -0.24200
H1521       H  0.60002801  0.53251483  0.92580963     0.09300
H1522       H  0.60371471  0.53639319  0.97302972     0.12800
H1523       H  0.67549353  0.49280710  0.92163252     0.11600
H1524       H  0.70061258  0.48465983  0.96117655     0.12700
H1525       H  0.70410670  0.48344535  0.00925102     0.11800
H1526       H  0.60491342  0.53191852  0.01475316     0.08900
H1527       H  0.60774725  0.52481948  0.06175174     0.12100
H1528       H  0.68521716  0.48977306  0.05256248     0.14000
C1529       C  0.37065013  0.44942371  0.16116863    -0.01500
C1530       C  0.37718970  0.44228864  0.18718663    -0.09500
C1531       C  0.36995905  0.41742444  0.19749422    -0.18400
C1532       C  0.35525929  0.39895043  0.18216825     0.04000
C1533       C  0.34952726  0.40594527  0.15537528     0.18200
C1534       C  0.35755381  0.43087709  0.14504754    -0.19800
C1535       C  0.33486748  0.38846840  0.13940904    -0.21100
C1536       C  0.32502901  0.36460229  0.14965675    -0.19600
C1537       C  0.32962084  0.35751510  0.17614439     0.19600
C1538       C  0.34520201  0.37430107  0.19269944     0.01700
C1539       C  0.34934180  0.36597800  0.21925254    -0.14300
C1540       C  0.33766190  0.34256490  0.22915265    -0.12100
C1541       C  0.32159700  0.32650545  0.21300238     0.01300
C1542       C  0.31816006  0.33396792  0.18630875    -0.24200
H1543       H  0.38732649  0.45643733  0.19990878     0.09300
H1544       H  0.37541527  0.41364067  0.21779505     0.12800
H1545       H  0.35221305  0.43649458  0.12497873     0.11600
H1546       H  0.33046788  0.39356194  0.11898855     0.12700
H1547       H  0.31330747  0.35179824  0.13687065     0.11800
H1548       H  0.36122388  0.37729934  0.23300488     0.08900
H1549       H  0.34098273  0.33721855  0.24969914     0.12100
H1550       H  0.30603748  0.32167244  0.17339315     0.14000
C1551       C  0.35569514  0.54943409  0.16942568    -0.01500
C1552       C  0.36477347  0.57539018  0.16394966    -0.09500
C1553       C  0.35450132  0.59746102  0.17741287    -0.18400
C1554       C  0.33414739  0.59452793  0.19668629     0.04000
C1555       C  0.32363341  0.56855520  0.20092893     0.18200
C1556       C  0.33428703  0.54649542  0.18736703    -0.19800
C1557       C  0.30255039  0.56466723  0.21881692    -0.21100
C1558       C  0.29196000  0.58595919  0.23296404    -0.19600
C1559       C  0.30234984  0.61169981  0.22986082     0.19600
C1560       C  0.32368131  0.61635891  0.21174071     0.01700
C1561       C  0.33381586  0.64259930  0.20978601    -0.14300
C1562       C  0.32306456  0.66328671  0.22488886    -0.12100
C1563       C  0.30171195  0.65879768  0.24241898     0.01300
C1564       C  0.29149499  0.63282251  0.24478798    -0.24200
H1565       H  0.38034996  0.57861870  0.14935947     0.09300
H1566       H  0.36285251  0.61657733  0.17218569     0.12800
H1567       H  0.32529732  0.52721688  0.19074843     0.11600
H1568       H  0.29423421  0.54495055  0.22199404     0.12700
H1569       H  0.27568057  0.58219936  0.24665774     0.11800
H1570       H  0.35018204  0.64778790  0.19687393     0.08900
H1571       H  0.33134788  0.68310225  0.22242329     0.12100
H1572       H  0.27500158  0.62900818  0.25822150     0.14000
C1573       C  0.44082050  0.50573309  0.13681298    -0.01500
C1574       C  0.45599280  0.52925378  0.13556276    -0.09500
C1575       C  0.48353828  0.52850804  0.13186058    -0.18400
C1576       C  0.49705913  0.50403450  0.12915934     0.04000
C1577       C  0.48153125  0.48024440  0.12942499     0.18200
C1578       C  0.45379871  0.48128220  0.13338909    -0.19800
C1579       C  0.49380213  0.45551258  0.12592740    -0.21100
C1580       C  0.52122222  0.45383449  0.12258631    -0.19600
C1581       C  0.53715115  0.47680032  0.12314473     0.19600
C1582       C  0.52537541  0.50226383  0.12640592     0.01700
C1583       C  0.54255084  0.52471119  0.12737700    -0.14300
C1584       C  0.57020590  0.52187923  0.12573061    -0.12100
C1585       C  0.58173436  0.49671184  0.12282114     0.01300
C1586       C  0.56490014  0.47432632  0.12097799    -0.24200
H1587       H  0.44653079  0.54851998  0.13714069     0.09300
H1588       H  0.49364910  0.54746693  0.13104037     0.12800
H1589       H  0.44244984  0.46289934  0.13433110     0.11600
H1590       H  0.48211506  0.43730526  0.12587420     0.12700
H1591       H  0.53009451  0.43435028  0.12005723     0.11800
H1592       H  0.53528576  0.54468876  0.13007087     0.08900
H1593       H  0.58257219  0.53949227  0.12752733     0.12100
H1594       H  0.57334930  0.45473192  0.11799612     0.14000
C1595       C  0.29538278  0.67640116  0.81257310    -0.01500
C1596       C  0.31167767  0.66085648  0.79621172    -0.09500
C1597       C  0.32403346  0.63804824  0.80604788    -0.18400
C1598       C  0.32040832  0.62994491  0.83275055     0.04000
C1599       C  0.30426486  0.64608197  0.84939202     0.18200
C1600       C  0.29202633  0.66897322  0.83924885    -0.19800
C1601       C  0.30007363  0.63910419  0.87599460    -0.21100
C1602       C  0.31100028  0.61595743  0.88634254    -0.19600
C1603       C  0.32634708  0.59919389  0.87032889     0.19600
C1604       C  0.33162851  0.60612781  0.84337805     0.01700
C1605       C  0.34715972  0.58842599  0.82802674    -0.14300
C1606       C  0.35561138  0.56422525  0.83851346    -0.12100
C1607       C  0.34937247  0.55713468  0.86463894     0.01300
C1608       C  0.33549833  0.57493660  0.88077165    -0.24200
H1609       H  0.31479723  0.66621694  0.77560066     0.09300
H1610       H  0.33611533  0.62711906  0.79215449     0.12800
H1611       H  0.27962835  0.68092184  0.85222446     0.11600
H1612       H  0.28790054  0.65143999  0.88880620     0.12700
H1613       H  0.30696283  0.61085494  0.90687886     0.11800
H1614       H  0.35237763  0.59223088  0.80761879     0.08900
H1615       H  0.36628219  0.55044259  0.82584115     0.12100
H1616       H  0.33045401  0.56916164  0.90093076     0.14000
C1617       C  0.33668713  0.45743335  0.85590843    -0.01500
C1618       C  0.34777498  0.43203008  0.85917370    -0.09500
C1619       C  0.33867571  0.41028148  0.84449333    -0.18400
C1620       C  0.31752609  0.41300062  0.82630136     0.04000
C1621       C  0.30475475  0.43809752  0.82468553     0.18200
C1622       C  0.31428333  0.45987309  0.83938526    -0.19800
C1623       C  0.28253095  0.44137990  0.80832943    -0.21100
C1624       C  0.27258329  0.42013692  0.79364875    -0.19600
C1625       C  0.28503739  0.39528202  0.79440899     0.19600
C1626       C  0.30812513  0.39156596  0.81020442     0.01700
C1627       C  0.32088194  0.36659284  0.80909065    -0.14300
C1628       C  0.31018700  0.34570734  0.79431431    -0.12100
C1629       C  0.28644780  0.34888687  0.78011791     0.01300
C1630       C  0.27431251  0.37397654  0.77976760    -0.24200
H1631       H  0.36431059  0.42917282  0.87259440     0.09300
H1632       H  0.34848193  0.39156340  0.84798715     0.12800
H1633       H  0.30377110  0.47847579  0.83779853     0.11600
H1634       H  0.27259987  0.46046023  0.80707324     0.12700
H1635       H  0.25509530  0.42320859  0.78152332     0.11800
H1636       H  0.33916385  0.36256155  0.81942222     0.08900
H1637       H  0.32028550  0.32669135  0.79466708     0.12100
H1638       H  0.25616462  0.37681474  0.76856777     0.14000
C1639       C  0.42270528  0.50691936  0.87306666    -0.01500
C1640       C  0.43757643  0.51987537  0.89273182    -0.09500
C1641       C  0.46528217  0.52164610  0.89090851    -0.18400
C1642       C  0.47915382  0.51052120  0.86913482     0.04000
C1643       C  0.46389492  0.49869417  0.84854874     0.18200
C1644       C  0.43609668  0.49731200  0.85053405    -0.19800
C1645       C  0.47645760  0.48770939  0.82630492    -0.21100
C1646       C  0.50400795  0.48738194  0.82444099    -0.19600
C1647       C  0.51964770  0.49808755  0.84474936     0.19600
C1648       C  0.50754012  0.51022079  0.86720704     0.01700
C1649       C  0.52443677  0.52094082  0.88694913    -0.14300
C1650       C  0.55208661  0.51870880  0.88490439    -0.12100
C1651       C  0.56381835  0.50575026  0.86329907     0.01300
C1652       C  0.54740557  0.49616146  0.84293493    -0.24200
H1653       H  0.42806269  0.52821171  0.91005118     0.09300
H1654       H  0.47526970  0.53146584  0.90708168     0.12800
H1655       H  0.42497112  0.48842626  0.83441975     0.11600
H1656       H  0.46490167  0.47882526  0.81045893     0.12700
H1657       H  0.51315383  0.47826007  0.80719551     0.11800
H1658       H  0.51692290  0.53071201  0.90444973     0.08900
H1659       H  0.56416248  0.52641914  0.90078949     0.12100
H1660       H  0.55624033  0.48682464  0.82564375     0.14000
C1661       C  0.36292768  0.50292278  0.94150951    -0.01500
C1662       C  0.38806258  0.50377163  0.95326450    -0.09500
C1663       C  0.39078867  0.50374791  0.98085332    -0.18400
C1664       C  0.36821501  0.50297751  0.99771422     0.04000
C1665       C  0.34266676  0.50283945  0.98561168     0.18200
C1666       C  0.34027153  0.50243232  0.95777696    -0.19800
C1667       C  0.31966465  0.50307218  0.00136040    -0.21100
C1668       C  0.32142255  0.50357125  0.02890391    -0.19600
C1669       C  0.34621575  0.50321155  0.04145169     0.19600
C1670       C  0.37001079  0.50243059  0.02607440     0.01700
C1671       C  0.39448356  0.50086980  0.03981077    -0.14300
C1672       C  0.39523724  0.50063163  0.06755100    -0.12100
C1673       C  0.37178984  0.50239185  0.08250691     0.01300
C1674       C  0.34733991  0.50362555  0.06934831    -0.24200
H1675       H  0.40577885  0.50353554  0.94106624     0.09300
H1676       H  0.41082927  0.50436434  0.98835925     0.12800
H1677       H  0.32074619  0.50188044  0.94869447     0.11600
H1678       H  0.30014107  0.50307635  0.99229890     0.12700
H1679       H  0.30321437  0.50401331  0.04049700     0.11800
H1680       H  0.41337446  0.49964554  0.02970148     0.08900
H1681       H  0.41435470  0.49981775  0.07738090     0.12100
H1682       H  0.32913151  0.50474485  0.08091584     0.14000
C1683       C  0.15193231  0.64812284  0.58434032    -0.01500
C1684       C  0.17983309  0.64708095  0.58644248    -0.09500
C1685       C  0.19326705  0.65854107  0.60793781    -0.18400
C1686       C  0.17918978  0.67155543  0.62847774     0.04000
C1687       C  0.15093646  0.67191418  0.62679756     0.18200
C1688       C  0.13772151  0.66023993  0.60513558    -0.19800
C1689       C  0.13585758  0.68431655  0.64660206    -0.21100
C1690       C  0.14816558  0.69682764  0.66783413    -0.19600
C1691       C  0.17590884  0.69721483  0.66991629     0.19600
C1692       C  0.19195612  0.68442364  0.65049274     0.01700
C1693       C  0.21995502  0.68532236  0.65399547    -0.14300
C1694       C  0.23134358  0.69854252  0.67579048    -0.12100
C1695       C  0.21529858  0.71144320  0.69460266     0.01300
C1696       C  0.18758192  0.71050714  0.69142909    -0.24200
H1697       H  0.19145147  0.63769650  0.57091343     0.09300
H1698       H  0.21464986  0.65715164  0.60777208     0.12800
H1699       H  0.11631512  0.66120680  0.60477331     0.11600
H1700       H  0.11431749  0.68459223  0.64553954     0.12700
H1701       H  0.13585349  0.70643424  0.68268784     0.11800
H1702       H  0.23351346  0.67606047  0.64024055     0.08900
H1703       H  0.25279930  0.69888929  0.67775388     0.12100
H1704       H  0.17483801  0.72010675  0.70593116     0.14000
C1705       C  0.22033212  0.69787004  0.36987454    -0.01500
C1706       C  0.21172862  0.67123177  0.37052969    -0.09500
C1707       C  0.19802994  0.66095554  0.39260803    -0.18400
C1708       C  0.19210893  0.67716123  0.41483496     0.04000
C1709       C  0.20095295  0.70413429  0.41409321     0.18200
C1710       C  0.21508506  0.71404433  0.39199984    -0.19800
C1711       C  0.19527996  0.72128767  0.43523526    -0.21100
C1712       C  0.18100105  0.71230359  0.45717237    -0.19600
C1713       C  0.17227957  0.68582153  0.45874111     0.19600
C1714       C  0.17767526  0.66776412  0.43768646     0.01700
C1715       C  0.16854350  0.64114557  0.44065334    -0.14300
C1716       C  0.15532969  0.63276213  0.46382688    -0.12100
C1717       C  0.15064225  0.65055739  0.48472693     0.01300
C1718       C  0.15865267  0.67723232  0.48162365    -0.24200
H1719       H  0.21533351  0.65826553  0.35373290     0.09300
H1720       H  0.19197092  0.64036114  0.39152310     0.12800
H1721       H  0.22131828  0.73475901  0.39175730     0.11600
H1722       H  0.20184568  0.74188911  0.43476048     0.12700
H1723       H  0.17697713  0.72614460  0.47318616     0.11800
H1724       H  0.17186113  0.62619919  0.42567084     0.08900
H1725       H  0.14970082  0.61199688  0.46576778     0.12100
H1726       H  0.15474580  0.69138095  0.49739781     0.14000
C1727       C  0.84415909  0.65098480  0.45177322    -0.01500
C1728       C  0.81765438  0.64418321  0.44576327    -0.09500
C1729       C  0.80480516  0.65474010  0.42354650    -0.18400
C1730       C  0.81798763  0.67289705  0.40650598     0.04000
C1731       C  0.84430438  0.68078341  0.41337342     0.18200
C1732       C  0.85691228  0.67006716  0.43572893    -0.19800
C1733       C  0.85823674  0.69914669  0.39767936    -0.21100
C1734       C  0.84694286  0.70934055  0.37482681    -0.19600
C1735       C  0.82142311  0.70143870  0.36706580     0.19600
C1736       C  0.80630312  0.68337364  0.38281245     0.01700
C1737       C  0.78048479  0.67637865  0.37378653    -0.14300
C1738       C  0.77053150  0.68647443  0.34979933    -0.12100
C1739       C  0.78596235  0.70378374  0.33415249     0.01300
C1740       C  0.81121773  0.71137114  0.34328995    -0.24200
H1741       H  0.80691950  0.63011457  0.45817509     0.09300
H1742       H  0.78466525  0.64816034  0.42010487     0.12800
H1743       H  0.87668757  0.67702732  0.44026740     0.11600
H1744       H  0.87821561  0.70540460  0.40290385     0.12700
H1745       H  0.85844251  0.72326292  0.36291443     0.11800
H1746       H  0.76768677  0.66293597  0.38466336     0.08900
H1747       H  0.75087076  0.68045363  0.34335214     0.12100
H1748       H  0.82334896  0.72501622  0.33167081     0.14000
C1749       C  0.92812622  0.62866378  0.50524818    -0.01500
C1750       C  0.94570904  0.63008522  0.48349391    -0.09500
C1751       C  0.97327778  0.62948121  0.48691431    -0.18400
C1752       C  0.98459915  0.62717435  0.51240874     0.04000
C1753       C  0.96685605  0.62502064  0.53443676     0.18200
C1754       C  0.93899298  0.62575602  0.53070446    -0.19800
C1755       C  0.97706321  0.62229421  0.56010090    -0.21100
C1756       C  0.00442085  0.62196276  0.56442896    -0.19600
C1757       C  0.02240101  0.62450486  0.54323297     0.19600
C1758       C  0.01281418  0.62700189  0.51686725     0.01700
C1759       C  0.03193495  0.62947640  0.49623260    -0.14300
C1760       C  0.05927902  0.62989684  0.50164618    -0.12100
C1761       C  0.06867716  0.62786449  0.52771105     0.01300
C1762       C  0.04995495  0.62479499  0.54835861    -0.24200
H1763       H  0.93821639  0.63127088  0.46342643     0.09300
H1764       H  0.98519054  0.63073545  0.46912976     0.12800
H1765       H  0.92581120  0.62454193  0.54774029     0.11600
H1766       H  0.96377295  0.62051692  0.57701310     0.12700
H1767       H  0.01157576  0.61995593  0.58458962     0.11800
H1768       H  0.02640973  0.63146372  0.47569596     0.08900
H1769       H  0.07308397  0.63247096  0.48528564     0.12100
H1770       H  0.05677913  0.62247451  0.56859108     0.14000
C1771       C  0.23833295  0.28684919  0.33324383    -0.01500
C1772       C  0.24657031  0.31217785  0.34154929    -0.09500
C1773       C  0.23338984  0.32520405  0.36238867    -0.18400
C1774       C  0.21156500  0.31309605  0.37575623     0.04000
C1775       C  0.20444413  0.28673495  0.36824657     0.18200
C1776       C  0.21767538  0.27404292  0.34718065    -0.19800
C1777       C  0.18371064  0.27336302  0.38136783    -0.21100
C1778       C  0.16933235  0.28585923  0.40139810    -0.19600
C1779       C  0.17509106  0.31217340  0.40862984     0.19600
C1780       C  0.19632185  0.32616581  0.39600923     0.01700
C1781       C  0.20113645  0.35268616  0.40406281    -0.14300
C1782       C  0.18563595  0.36476481  0.42374230    -0.12100
C1783       C  0.16445515  0.35106351  0.43615713     0.01300
C1784       C  0.15971599  0.32451881  0.42850861    -0.24200
H1785       H  0.26256120  0.32241103  0.33120992     0.09300
H1786       H  0.24049989  0.34486875  0.36731069     0.12800
H1787       H  0.21146572  0.25420707  0.34122200     0.11600
H1788       H  0.17838489  0.25314676  0.37591054     0.12700
H1789       H  0.15330960  0.27497455  0.41103550     0.11800
H1790       H  0.21690975  0.36463801  0.39563284     0.08900
H1791       H  0.19130452  0.38463452  0.42961134     0.12100
H1792       H  0.14408550  0.31326295  0.43838139     0.14000
C1793       C  0.20594493  0.30399841  0.65732681    -0.01500
C1794       C  0.20207141  0.28577629  0.63659052    -0.09500
C1795       C  0.19112897  0.29366547  0.61251927    -0.18400
C1796       C  0.18366633  0.32038222  0.60803589     0.04000
C1797       C  0.18777473  0.33902084  0.62891125     0.18200
C1798       C  0.19868939  0.33070154  0.65333744    -0.19800
C1799       C  0.18094056  0.36580200  0.62522173    -0.21100
C1800       C  0.17018715  0.37447326  0.60126411    -0.19600
C1801       C  0.16589120  0.35659225  0.58035053     0.19600
C1802       C  0.17247418  0.32923360  0.58352004     0.01700
C1803       C  0.16776416  0.31191727  0.56190007    -0.14300
C1804       C  0.15783810  0.32146868  0.53797601    -0.12100
C1805       C  0.15206527  0.34851071  0.53459384     0.01300
C1806       C  0.15557346  0.36594224  0.55606178    -0.24200
H1807       H  0.20721005  0.26498016  0.63902435     0.09300
H1808       H  0.18882136  0.27824149  0.59786224     0.12800
H1809       H  0.20157927  0.34501840  0.66918066     0.11600
H1810       H  0.18402315  0.38018783  0.64095819     0.12700
H1811       H  0.16529472  0.39536211  0.59904262     0.11800
H1812       H  0.17179618  0.29088695  0.56261838     0.08900
H1813       H  0.15495499  0.30755735  0.52179117     0.12100
H1814       H  0.15136339  0.38695556  0.55350937     0.14000
C1815       C  0.13935133  0.43047206  0.49480709    -0.01500
C1816       C  0.16254451  0.44573565  0.49163541    -0.09500
C1817       C  0.16290386  0.47281080  0.49787525    -0.18400
C1818       C  0.13982950  0.48573481  0.50741091     0.04000
C1819       C  0.11636182  0.47009652  0.51088447     0.18200
C1820       C  0.11638914  0.44271350  0.50479142    -0.19800
C1821       C  0.09290773  0.48196802  0.52004694    -0.21100
C1822       C  0.09210148  0.50913293  0.52548285    -0.19600
C1823       C  0.11478206  0.52510351  0.52210361     0.19600
C1824       C  0.13910926  0.51361308  0.51333068     0.01700
C1825       C  0.16160118  0.53059384  0.51084084    -0.14300
C1826       C  0.15991935  0.55773662  0.51676383    -0.12100
C1827       C  0.13583918  0.56883452  0.52494887     0.01300
C1828       C  0.11331597  0.55254962  0.52752616    -0.24200
H1829       H  0.18065466  0.43664351  0.48433262     0.09300
H1830       H  0.18151036  0.48308614  0.49473090     0.12800
H1831       H  0.09826086  0.43111494  0.50704900     0.11600
H1832       H  0.07496551  0.47019787  0.52279171     0.12700
H1833       H  0.07356551  0.51773248  0.53234509     0.11800
H1834       H  0.18082068  0.52352886  0.50456188     0.08900
H1835       H  0.17749614  0.57019087  0.51485560     0.12100
H1836       H  0.09472786  0.56125619  0.53417033     0.14000
C1837       C  0.84910070  0.33525922  0.54463034    -0.01500
C1838       C  0.85390521  0.34647837  0.56970286    -0.09500
C1839       C  0.83975476  0.33817259  0.59209781    -0.18400
C1840       C  0.82052456  0.31766036  0.59045530     0.04000
C1841       C  0.81754537  0.30437094  0.56575911     0.18200
C1842       C  0.83159297  0.31328776  0.54315864    -0.19800
C1843       C  0.80033671  0.28241587  0.56374101    -0.21100
C1844       C  0.78600345  0.27346027  0.58574616    -0.19600
C1845       C  0.78782530  0.28677397  0.61010131     0.19600
C1846       C  0.80458013  0.30951582  0.61257984     0.01700
C1847       C  0.80438093  0.32336387  0.63699627    -0.14300
C1848       C  0.78957361  0.31399614  0.65857467    -0.12100
C1849       C  0.77449904  0.29050876  0.65668674     0.01300
C1850       C  0.77322628  0.27734228  0.63211291    -0.24200
H1851       H  0.86800665  0.36274136  0.57176230     0.09300
H1852       H  0.84442415  0.34811372  0.61046731     0.12800
H1853       H  0.82846145  0.30297215  0.52465121     0.11600
H1854       H  0.79809617  0.27196090  0.54506015     0.12700
H1855       H  0.77317416  0.25617885  0.58361735     0.11800
H1856       H  0.81539683  0.34158568  0.64000446     0.08900
H1857       H  0.79059955  0.32488028  0.67710298     0.12100
H1858       H  0.76124557  0.25942754  0.63019758     0.14000
C1859       C  0.85618520  0.34832823  0.44438885    -0.01500
C1860       C  0.87453022  0.34325975  0.42409800    -0.09500
C1861       C  0.86577933  0.33596806  0.39868745    -0.18400
C1862       C  0.83824013  0.33370548  0.39288571     0.04000
C1863       C  0.81987520  0.34030695  0.41334479     0.18200
C1864       C  0.82895154  0.34740897  0.43866176    -0.19800
C1865       C  0.79246372  0.33908845  0.40872441    -0.21100
C1866       C  0.78270959  0.33045330  0.38444500    -0.19600
C1867       C  0.80010747  0.32252503  0.36424541     0.19600
C1868       C  0.82814956  0.32440417  0.36795763     0.01700
C1869       C  0.84474115  0.31591301  0.34691634    -0.14300
C1870       C  0.83396573  0.30464608  0.32394233    -0.12100
C1871       C  0.80633735  0.30185524  0.32084634     0.01300
C1872       C  0.78953548  0.31172150  0.34074467    -0.24200
H1873       H  0.89565856  0.34392818  0.42815572     0.09300
H1874       H  0.88099646  0.33179287  0.38416307     0.12800
H1875       H  0.81468880  0.35176095  0.45427173     0.11600
H1876       H  0.77841554  0.34437675  0.42420799     0.12700
H1877       H  0.76135345  0.32925247  0.38171996     0.11800
H1878       H  0.86613553  0.31697477  0.34793989     0.08900
H1879       H  0.84744199  0.29760293  0.30867533     0.12100
H1880       H  0.76815738  0.30976134  0.33855481     0.14000
C1881       C  0.86675660  0.42242883  0.49931866    -0.01500
C1882       C  0.86398404  0.43671503  0.52312029    -0.09500
C1883       C  0.86375653  0.46442148  0.52340141    -0.18400
C1884       C  0.86673818  0.47922278  0.49978067     0.04000
C1885       C  0.86963070  0.46486378  0.47557432     0.18200
C1886       C  0.86961787  0.43674338  0.47553511    -0.19800
C1887       C  0.87253689  0.47870301  0.45159886    -0.21100
C1888       C  0.87257364  0.50644619  0.45115273    -0.19600
C1889       C  0.86981882  0.52108792  0.47468125     0.19600
C1890       C  0.86701380  0.50772346  0.49937484     0.01700
C1891       C  0.86469874  0.52351568  0.52258045    -0.14300
C1892       C  0.86474300  0.55133020  0.52124743    -0.12100
C1893       C  0.86704537  0.56443289  0.49686141     0.01300
C1894       C  0.86985127  0.54908083  0.47365345    -0.24200
H1895       H  0.86257756  0.42654121  0.54201100     0.09300
H1896       H  0.86143068  0.47360264  0.54257498     0.12800
H1897       H  0.87156219  0.42609617  0.45693327     0.11600
H1898       H  0.87476501  0.46800094  0.43304825     0.12700
H1899       H  0.87478151  0.51653668  0.43223935     0.11800
H1900       H  0.86270223  0.51504718  0.54213095     0.08900
H1901       H  0.86235420  0.56258741  0.53941717     0.12100
H1902       H  0.87235263  0.55890834  0.45464402     0.14000
C1903       C  0.93375176  0.36355117  0.49641565    -0.01500
C1904       C  0.94507058  0.36491488  0.47100953    -0.09500
C1905       C  0.97266085  0.36644750  0.46751580    -0.18400
C1906       C  0.99011482  0.36671284  0.48950176     0.04000
C1907       C  0.97857299  0.36594422  0.51530474     0.18200
C1908       C  0.95072867  0.36441989  0.51851742    -0.19800
C1909       C  0.99491264  0.36640353  0.53776182    -0.21100
C1910       C  0.02251442  0.36692549  0.53517497    -0.19600
C1911       C  0.03456689  0.36714413  0.51005636     0.19600
C1912       C  0.01854267  0.36736385  0.48685054     0.01700
C1913       C  0.03171952  0.36798992  0.46201815    -0.14300
C1914       C  0.05948518  0.36803550  0.46030233    -0.12100
C1915       C  0.07536996  0.36729771  0.48315914     0.01300
C1916       C  0.06258578  0.36698511  0.50803334    -0.24200
H1917       H  0.93260472  0.36418072  0.45357333     0.09300
H1918       H  0.97968454  0.36708952  0.44730291     0.12800
H1919       H  0.94228028  0.36402265  0.53834094     0.11600
H1920       H  0.98628322  0.36602920  0.55751018     0.12700
H1921       H  0.03453638  0.36697413  0.55298654     0.11800
H1922       H  0.02115665  0.36856873  0.44347271     0.08900
H1923       H  0.06845514  0.36911193  0.44077562     0.12100
H1924       H  0.07434267  0.36614498  0.52597060     0.14000
C1925       C  0.84305083  0.63765250  0.55020062    -0.01500
C1926       C  0.81527388  0.63792245  0.55294101    -0.09500
C1927       C  0.80308709  0.64776872  0.57584290    -0.18400
C1928       C  0.81833874  0.65810647  0.59699591     0.04000
C1929       C  0.84657792  0.65641902  0.59486832     0.18200
C1930       C  0.85866302  0.64598968  0.57168487    -0.19800
C1931       C  0.86253546  0.66617440  0.61544826    -0.21100
C1932       C  0.85116459  0.67837747  0.63759065    -0.19600
C1933       C  0.82349509  0.68119253  0.63981509     0.19600
C1934       C  0.80662510  0.67071954  0.61976596     0.01700
C1935       C  0.77880295  0.67394758  0.62311348    -0.14300
C1936       C  0.76827101  0.68740067  0.64509785    -0.12100
C1937       C  0.78493874  0.69828861  0.66453191     0.01300
C1938       C  0.81261587  0.69481225  0.66179729    -0.24200
H1939       H  0.80279229  0.63129616  0.53672026     0.09300
H1940       H  0.78165726  0.64770650  0.57600616     0.12800
H1941       H  0.88015490  0.64596253  0.56969592     0.11600
H1942       H  0.88402232  0.66485183  0.61416791     0.12700
H1943       H  0.86417243  0.68609416  0.65290528     0.11800
H1944       H  0.76458912  0.66654342  0.60894685     0.08900
H1945       H  0.74689689  0.68967559  0.64661647     0.12100
H1946       H  0.82583168  0.70287789  0.67676568     0.14000
C1947       C  0.69310849  0.66912329  0.77807164    -0.01500
C1948       C  0.68318964  0.64946659  0.76100725    -0.09500
C1949       C  0.67006537  0.62693062  0.77111318    -0.18400
C1950       C  0.66634321  0.62336635  0.79880371     0.04000
C1951       C  0.67537409  0.64398287  0.81589889     0.18200
C1952       C  0.68855978  0.66643613  0.80547886    -0.19800
C1953       C  0.67185766  0.64179014  0.84340419    -0.21100
C1954       C  0.66065155  0.61895975  0.85449823    -0.19600
C1955       C  0.65271790  0.59769869  0.83838600     0.19600
C1956       C  0.65486275  0.59981058  0.81025120     0.01700
C1957       C  0.64632459  0.57783145  0.79492367    -0.14300
C1958       C  0.63784461  0.55423359  0.80703562    -0.12100
C1959       C  0.63724533  0.55173327  0.83476531     0.01300
C1960       C  0.64368506  0.57390877  0.85031696    -0.24200
H1961       H  0.68620129  0.65114439  0.73977170     0.09300
H1962       H  0.66347485  0.61245857  0.75675780     0.12800
H1963       H  0.69569038  0.68174642  0.81890350     0.11600
H1964       H  0.67841291  0.65761042  0.85651098     0.12700
H1965       H  0.65884696  0.61763874  0.87590464     0.11800
H1966       H  0.64663358  0.57796789  0.77354199     0.08900
H1967       H  0.63218563  0.53759350  0.79455685     0.12100
H1968       H  0.64316902  0.57215837  0.87176699     0.14000
C1969       C  0.66660169  0.78810249  0.69396557    -0.01500
C1970       C  0.66553850  0.81574127  0.68979484    -0.09500
C1971       C  0.64314534  0.82768462  0.67862627    -0.18400
C1972       C  0.62059068  0.81237938  0.67161542     0.04000
C1973       C  0.62181866  0.78429066  0.67563271     0.18200
C1974       C  0.64482543  0.77242593  0.68625844    -0.19800
C1975       C  0.59973034  0.76828556  0.66985679    -0.21100
C1976       C  0.57615570  0.77959389  0.66105563    -0.19600
C1977       C  0.57416831  0.80716909  0.65735511     0.19600
C1978       C  0.59652241  0.82396709  0.66177667     0.01700
C1979       C  0.59349551  0.85161315  0.65665491    -0.14300
C1980       C  0.56881411  0.86222316  0.64920634    -0.12100
C1981       C  0.54647475  0.84569662  0.64674988     0.01300
C1982       C  0.54963314  0.81808098  0.64993328    -0.24200
H1983       H  0.68210373  0.82836220  0.69549283     0.09300
H1984       H  0.64379410  0.84904058  0.67645324     0.12800
H1985       H  0.64528937  0.75109372  0.68964936     0.11600
H1986       H  0.60045788  0.74690894  0.67282560     0.12700
H1987       H  0.55919974  0.76668052  0.65746868     0.11800
H1988       H  0.60973167  0.86557001  0.65861080     0.08900
H1989       H  0.56696466  0.88353389  0.64642087     0.12100
H1990       H  0.53266215  0.80497030  0.64712691     0.14000
C1991       C  0.70718326  0.79779431  0.82939206    -0.01500
C1992       C  0.70193032  0.82513059  0.83161052    -0.09500
C1993       C  0.68842306  0.83526235  0.85385030    -0.18400
C1994       C  0.67941728  0.81817332  0.87445853     0.04000
C1995       C  0.68428464  0.79042611  0.87159722     0.18200
C1996       C  0.69813954  0.78067734  0.84949432    -0.19800
C1997       C  0.67543440  0.77237154  0.89087641    -0.21100
C1998       C  0.66258486  0.78127335  0.91355039    -0.19600
C1999       C  0.65836908  0.80846708  0.91759105     0.19600
C2000       C  0.66621372  0.82740783  0.89799161     0.01700
C2001       C  0.66112220  0.85465335  0.90331242    -0.14300
C2002       C  0.65012801  0.86267391  0.92767178    -0.12100
C2003       C  0.64389694  0.84384346  0.94728644     0.01300
C2004       C  0.64728121  0.81679756  0.94173136    -0.24200
H2005       H  0.70843994  0.83875830  0.81619677     0.09300
H2006       H  0.68530037  0.85649208  0.85438053     0.12800
H2007       H  0.70156161  0.75942202  0.84779049     0.11600
H2008       H  0.67882488  0.75117942  0.88858989     0.12700
H2009       H  0.65643355  0.76678727  0.92834581     0.11800
H2010       H  0.66619534  0.87021339  0.88940090     0.08900
H2011       H  0.64781397  0.88373780  0.93171670     0.12100
H2012       H  0.64228691  0.80218598  0.95685449     0.14000
C2013       C  0.79786701  0.83585644  0.71199957    -0.01500
C2014       C  0.82403249  0.83494623  0.70227159    -0.09500
C2015       C  0.83582534  0.85736127  0.69043791    -0.18400
C2016       C  0.82163464  0.88149175  0.68767044     0.04000
C2017       C  0.79498783  0.88214503  0.69729252     0.18200
C2018       C  0.78359806  0.85968206  0.70953571    -0.19800
C2019       C  0.77961625  0.90510588  0.69433015    -0.21100
C2020       C  0.79007144  0.92751237  0.68189178    -0.19600
C2021       C  0.81635258  0.92774364  0.67262930     0.19600
C2022       C  0.83270032  0.90491205  0.67555160     0.01700
C2023       C  0.85938734  0.90676019  0.66646308    -0.14300
C2024       C  0.86939173  0.93040897  0.65531215    -0.12100
C2025       C  0.85314347  0.95283213  0.65272471     0.01300
C2026       C  0.82646872  0.95101167  0.66090248    -0.24200
H2027       H  0.83544911  0.81675185  0.70364399     0.09300
H2028       H  0.85591638  0.85506753  0.68326895     0.12800
H2029       H  0.76322399  0.86064538  0.71663089     0.11600
H2030       H  0.75926138  0.90567627  0.70150357     0.12700
H2031       H  0.77758519  0.94494008  0.67980521     0.11800
H2032       H  0.87317908  0.89048979  0.66830379     0.08900
H2033       H  0.89014335  0.93138781  0.64950792     0.12100
H2034       H  0.81347919  0.96802741  0.65853006     0.14000
C2035       C  0.83000708  0.71703163  0.79822502    -0.01500
C2036       C  0.82927201  0.71247297  0.82565884    -0.09500
C2037       C  0.85105353  0.70127820  0.83871589    -0.18400
C2038       C  0.87427083  0.69382556  0.82457650     0.04000
C2039       C  0.87474539  0.69825782  0.79670709     0.18200
C2040       C  0.85294808  0.71001140  0.78396425    -0.19800
C2041       C  0.89684040  0.69061927  0.78157868    -0.21100
C2042       C  0.91854126  0.67853015  0.79349737    -0.19600
C2043       C  0.91887798  0.67413027  0.82090816     0.19600
C2044       C  0.89690059  0.68190359  0.83691264     0.01700
C2045       C  0.89855660  0.67728888  0.86450453    -0.14300
C2046       C  0.92104836  0.66559819  0.87571172    -0.12100
C2047       C  0.94293746  0.65808832  0.85991208     0.01300
C2048       C  0.94121349  0.66206093  0.83237225    -0.24200
H2049       H  0.81176205  0.71761850  0.83713274     0.09300
H2050       H  0.84894213  0.69840437  0.85981292     0.12800
H2051       H  0.85362406  0.71308245  0.76266340     0.11600
H2052       H  0.89726299  0.69383634  0.76030562     0.12700
H2053       H  0.93526343  0.67270704  0.78118091     0.11800
H2054       H  0.88277967  0.68252284  0.87804531     0.08900
H2055       H  0.92049516  0.66218425  0.89680620     0.12100
H2056       H  0.95764622  0.65596550  0.81977636     0.14000
loop_ 
_geom_bond_atom_site_label_1 
_geom_bond_atom_site_label_2 
_geom_bond_distance 
_geom_bond_site_symmetry_2 
_ccdc_geom_bond_type 
Zn1           O5   1.957       .  S
Zn1           O6   2.008       .  S
Zn1          O10   2.029       .  S
Zn1          O17   2.001       .  S
Zn2           O5   1.964       .  S
Zn2           O7   2.009       .  S
Zn2           O9   2.038       .  S
Zn2          O13   1.997       .  S
Zn3           O5   1.966       .  S
Zn3           O8   2.019       .  S
Zn3          O11   2.036       .  S
Zn3          O14   2.019       .  S
Zn4           O5   1.986       .  S
Zn4          O12   2.067       .  S
Zn4          O15   2.066       .  S
Zn4          O16   2.057       .  S
O6           C18   1.273       .  A
O7           C19   1.274       .  A
O8           C20   1.274       .  A
O9           C18   1.274       .  A
O10          C20   1.275       .  A
O11          C19   1.276       .  A
O12          C21   1.281       .  A
O13          C22   1.272       .  A
O14          C21   1.274       .  A
O15          C22   1.280       .  A
O16          C23   1.279       .  A
O17          C23   1.272       .  A
C18        C1991   1.485       .  S
C19        C2013   1.486       .  S
C20        C2035   1.484       .  S
C21        C1937   1.494       .  S
C22        C1969   1.487       .  S
C23        C1947   1.487       .  S
C24          C25   1.539       .  S
C24          C30   1.537       .  S
C24          C28   1.533       .  S
C24        C1837   1.532       .  S
C25          H32   1.086       .  S
C25          C26   1.371       .  D
C26          C27   1.546       .  S
C26        C1903   1.495       .  S
C27          C31   1.544       .  S
C27          C29   1.545       .  S
C27          H33   1.108       .  S
C28          H34   1.085       .  S
C28          C29   1.366       .  D
C29        C1881   1.494       .  S
C30          H35   1.082       .  S
C30          C31   1.366       .  D
C31        C1859   1.484       .  S
C36          C37   1.541       .  S
C36          C42   1.527       .  S
C36          C40   1.543       .  S
C36        C1783   1.536       .  S
C37          H44   1.085       .  S
C37          C38   1.376       .  D
C38          C39   1.549       .  S
C38        C1915   1.501       .  S
C39          C43   1.543       .  S
C39          C41   1.538       .  S
C39          H45   1.108       .  S
C40          H46   1.082       .  S
C40          C41   1.367       .  D
C41        C1815   1.486       .  S
C42          H47   1.087       .  S
C42          C43   1.363       .  D
C43        C1805   1.486       .  S
C48          C49   1.545       .  S
C48          C54   1.525       .  S
C48          C52   1.533       .  S
C48        C1727   1.532       .  S
C49          H56   1.079       .  S
C49          C50   1.371       .  D
C50          C51   1.549       .  S
C50        C1749   1.502       .  S
C51          C55   1.552       .  S
C51          C53   1.551       .  S
C51          H57   1.109       .  S
C52          H58   1.086       .  S
C52          C53   1.367       .  D
C53        C1893   1.491       .  S
C54          H59   1.087       .  S
C54          C55   1.364       .  D
C55        C1925   1.492       .  S
C60          C61   1.549       .  S
C60          C66   1.532       .  S
C60          C64   1.537       .  S
C60        C1683   1.537       .  S
C61          H68   1.080       .  S
C61          C62   1.372       .  D
C62          C63   1.546       .  S
C62        C1761   1.500       .  S
C63          C67   1.549       .  S
C63          C65   1.537       .  S
C63          H69   1.109       .  S
C64          H70   1.086       .  S
C64          C65   1.364       .  D
C65        C1827   1.475       .  S
C66          H71   1.086       .  S
C66          C67   1.366       .  D
C67        C1717   1.495       .  S
C72          C73   1.539       .  S
C72          C78   1.537       .  S
C72          C76   1.536       .  S
C72        C1617   1.529       .  S
C73          H80   1.085       .  S
C73          C74   1.370       .  D
C74          C75   1.542       .  S
C74        C1639   1.493       .  S
C75          C79   1.536       .  S
C75          C77   1.543       .  S
C75          H81   1.109       .  S
C76          H82   1.086       .  S
C76          C77   1.368       .  D
C77        C1661   1.483       .  S
C78          H83   1.082       .  S
C78          C79   1.360       .  D
C79        C1607   1.471       .  S
C84          C85   1.542       .  S
C84          C90   1.539       .  S
C84          C88   1.537       .  S
C84        C1551   1.536       .  S
C85          H92   1.085       .  S
C85          C86   1.371       .  D
C86          C87   1.544       .  S
C86        C1573   1.494       .  S
C87          C91   1.542       .  S
C87          C89   1.540       .  S
C87          H93   1.109       .  S
C88          H94   1.086       .  S
C88          C89   1.367       .  D
C89        C1673   1.483       .  S
C90          H95   1.083       .  S
C90          C91   1.364       .  D
C91        C1529   1.484       .  S
C96          C97   1.530       .  S
C96         C102   1.538       .  S
C96         C100   1.534       .  S
C96        C1485   1.531       .  S
C97         H104   1.085       .  S
C97          C98   1.371       .  D
C98          C99   1.551       .  S
C98        C1507   1.500       .  S
C99         C103   1.545       .  S
C99         C101   1.546       .  S
C99         H105   1.109       .  S
C100        H106   1.085       .  S
C100        C101   1.366       .  D
C101       C1651   1.488       .  S
C102        H107   1.084       .  S
C102        C103   1.366       .  D
C103       C1959   1.488       .  S
C108        C109   1.532       .  S
C108        C114   1.531       .  S
C108        C112   1.543       .  S
C108       C1475   1.531       .  S
C109        H116   1.086       .  S
C109        C110   1.367       .  D
C110        C111   1.548       .  S
C110       C1585   1.493       .  S
C111        C115   1.548       .  S
C111        C113   1.549       .  S
C111        H117   1.108       .  S
C112        H118   1.080       .  S
C112        C113   1.373       .  D
C113       C1519   1.499       .  S
C114        H119   1.087       .  S
C114        C115   1.364       .  D
C115       C1441   1.492       .  S
C120        C121   1.542       .  S
C120        C126   1.524       .  S
C120        C124   1.535       .  S
C120       C1353   1.533       .  S
C121        H128   1.082       .  S
C121        C122   1.366       .  D
C122        C123   1.544       .  S
C122       C1419   1.493       .  S
C123        C127   1.548       .  S
C123        C125   1.548       .  S
C123        H129   1.107       .  S
C124        H130   1.085       .  S
C124        C125   1.374       .  D
C125       C1397   1.495       .  S
C126        H131   1.085       .  S
C126        C127   1.368       .  D
C127       C1375   1.494       .  S
C132        C133   1.537       .  S
C132        C138   1.534       .  S
C132        C136   1.550       .  S
C132       C1309   1.533       .  S
C133        H140   1.085       .  S
C133        C134   1.370       .  D
C134        C135   1.541       .  S
C134       C1331   1.487       .  S
C135        C139   1.536       .  S
C135        C137   1.536       .  S
C135        H141   1.109       .  S
C136        H142   1.081       .  S
C136        C137   1.368       .  D
C137       C1431   1.491       .  S
C138        H143   1.087       .  S
C138        C139   1.363       .  D
C139       C1299   1.477       .  S
C144        C145   1.536       .  S
C144        C150   1.525       .  S
C144        C148   1.546       .  S
C144       C1243   1.528       .  S
C145        H152   1.086       .  S
C145        C146   1.364       .  D
C146        C147   1.543       .  S
C146       C1265   1.489       .  S
C147        C151   1.548       .  S
C147        C149   1.547       .  S
C147        H153   1.109       .  S
C148        H154   1.084       .  S
C148        C149   1.374       .  D
C149       C1409   1.489       .  S
C150        H155   1.087       .  S
C150        C151   1.364       .  D
C151       C1981   1.491       .  S
C156        C157   1.539       .  S
C156        C162   1.532       .  S
C156        C160   1.531       .  S
C156       C1221   1.531       .  S
C157        H164   1.085       .  S
C157        C158   1.369       .  D
C158        C159   1.543       .  S
C158       C1343   1.485       .  S
C159        C163   1.542       .  S
C159        C161   1.546       .  S
C159        H165   1.109       .  S
C160        H166   1.086       .  S
C160        C161   1.370       .  D
C161       C1277   1.489       .  S
C162        H167   1.084       .  S
C162        C163   1.364       .  D
C163       C1211   1.489       .  S
Zn168       O172   1.972       .  S
Zn168       O173   2.017       .  S
Zn168       O177   2.057       .  S
Zn168       O184   2.035       .  S
Zn169       O172   1.989       .  S
Zn169       O174   2.026       .  S
Zn169       O176   2.040       .  S
Zn169       O180   2.066       .  S
Zn170       O172   1.943       .  S
Zn170       O175   1.995       .  S
Zn170       O178   1.980       .  S
Zn170       O181   2.023       .  S
Zn171       O172   1.932       .  S
Zn171       O179   1.999       .  S
Zn171       O182   1.978       .  S
Zn171       O183   1.988       .  S
O173        C185   1.275       .  A
O174        C186   1.274       .  A
O175        C187   1.272       .  A
O176        C185   1.278       .  A
O177        C187   1.277       .  A
O178        C186   1.270       .  A
O179        C188   1.271       .  A
O180        C189   1.277       .  A
O181        C188   1.273       .  A
O182        C189   1.270       .  A
O183        C190   1.271       .  A
O184        C190   1.276       .  A
C185       C1167   1.480       .  S
C186       C1189   1.465       .  S
C187       C1793   1.488       .  S
C188       C1233   1.482       .  S
C189       C1133   1.489       .  S
C190       C1629   1.481       .  S
Zn191       O195   1.967       .  S
Zn191       O196   2.041       .  S
Zn191       O200   2.052       .  S
Zn191       O207   2.001       .  S
Zn192       O195   1.968       .  S
Zn192       O197   2.046       .  S
Zn192       O199   2.030       .  S
Zn192       O203   2.011       .  S
Zn193       O195   1.939       .  S
Zn193       O198   2.008       .  S
Zn193       O201   1.995       .  S
Zn193       O204   2.003       .  S
Zn194       O195   1.986       .  S
Zn194       O202   2.050       .  S
Zn194       O205   2.040       .  S
Zn194       O206   2.031       .  S
O196        C208   1.277       .  A
O197        C209   1.276       .  A
O198        C210   1.273       .  A
O199        C208   1.276       .  A
O200        C210   1.277       .  A
O201        C209   1.274       .  A
O202        C211   1.276       .  A
O203        C212   1.274       .  A
O204        C211   1.272       .  A
O205        C212   1.277       .  A
O206        C213   1.276       .  A
O207        C213   1.273       .  A
C208       C1705   1.492       .  S
C209       C1387   1.486       .  S
C210       C1563   1.490       .  S
C211       C1101   1.490       .  S
C212       C1067   1.485       .  S
C213       C1111   1.476       .  S
Zn214       O218   1.951       .  S
Zn214       O219   2.012       .  S
Zn214       O223   2.036       .  S
Zn214       O230   2.005       .  S
Zn215       O218   1.965       .  S
Zn215       O220   2.020       .  S
Zn215       O222   2.031       .  S
Zn215       O226   1.992       .  S
Zn216       O218   1.944       .  S
Zn216       O221   2.013       .  S
Zn216       O224   2.010       .  S
Zn216       O227   1.989       .  S
Zn217       O218   1.989       .  S
Zn217       O225   2.065       .  S
Zn217       O228   2.047       .  S
Zn217       O229   2.053       .  S
O219        C231   1.274       .  A
O220        C232   1.273       .  A
O221        C233   1.273       .  A
O222        C231   1.274       .  A
O223        C233   1.276       .  A
O224        C232   1.273       .  A
O225        C234   1.278       .  A
O226        C235   1.272       .  A
O227        C234   1.271       .  A
O228        C235   1.278       .  A
O229        C236   1.279       .  A
O230        C236   1.273       .  A
C231       C1001   1.485       .  S
C232       C1035   1.482       .  S
C233       C1057   1.488       .  S
C234       C1321   1.490       .  S
C235       C1463   1.483       .  S
C236       C1871   1.486       .  S
Zn237       O241   1.962       .  S
Zn237       O242   2.028       .  S
Zn237       O246   2.012       .  S
Zn237       O253   2.026       .  S
Zn238       O241   1.948       .  S
Zn238       O243   2.002       .  S
Zn238       O245   2.008       .  S
Zn238       O249   2.018       .  S
Zn239       O241   1.988       .  S
Zn239       O244   2.058       .  S
Zn239       O247   2.067       .  S
Zn239       O250   2.066       .  S
Zn240       O241   1.954       .  S
Zn240       O248   1.984       .  S
Zn240       O251   2.022       .  S
Zn240       O252   2.008       .  S
O242        C254   1.275       .  A
O243        C255   1.273       .  A
O244        C256   1.280       .  A
O245        C254   1.273       .  A
O246        C256   1.274       .  A
O247        C255   1.279       .  A
O248        C257   1.271       .  A
O249        C258   1.274       .  A
O250        C257   1.279       .  A
O251        C258   1.274       .  A
O252        C259   1.271       .  A
O253        C259   1.274       .  A
C254       C1497   1.484       .  S
C255        C935   1.492       .  S
C256        C957   1.490       .  S
C257        C979   1.480       .  S
C258       C1849   1.485       .  S
C259       C1199   1.473       .  S
C260        C261   1.540       .  S
C260        C266   1.534   1_554  S
C260        C264   1.527       .  S
C260        C869   1.529       .  S
C261        H268   1.084       .  S
C261        C262   1.368   1_554  D
C262        C263   1.539       .  S
C262        C913   1.485       .  S
C263        C267   1.544       .  S
C263        C265   1.544   1_556  S
C263        H269   1.110       .  S
C264        H270   1.087       .  S
C264        C265   1.367       .  D
C265        C891   1.484       .  S
C266        H271   1.086       .  S
C266        C267   1.368       .  D
C267       C2003   1.482       .  S
C272        C273   1.534       .  S
C272        C278   1.536   1_554  S
C272        C276   1.539       .  S
C272       C1023   1.530       .  S
C273        H280   1.085       .  S
C273        C274   1.372       .  D
C274        C275   1.550   1_554  S
C274        C847   1.499       .  S
C275        C279   1.542       .  S
C275        C277   1.537       .  S
C275        H281   1.108       .  S
C276        H282   1.084       .  S
C276        C277   1.365   1_554  D
C277        C925   1.483       .  S
C278        H283   1.085       .  S
C278        C279   1.365       .  D
C279        C969   1.486       .  S
C284        C285   1.540       .  S
C284        C290   1.528       .  S
C284        C288   1.540       .  S
C284       C1089   1.535       .  S
C285        H292   1.082       .  S
C285        C286   1.365       .  D
C286        C287   1.541       .  S
C286        C903   1.488       .  S
C287        C291   1.545       .  S
C287        C289   1.548       .  S
C287        H293   1.108   1_554  S
C288        H294   1.085       .  S
C288        C289   1.374       .  D
C289        C837   1.497       .  S
C290        H295   1.086       .  S
C290        C291   1.366       .  D
C291        C803   1.491   1_554  S
C296        C297   1.544       .  S
C296        C302   1.531       .  S
C296        C300   1.537       .  S
C296       C1145   1.534       .  S
C297        H304   1.081       .  S
C297        C298   1.367       .  D
C298        C299   1.541   1_556  S
C298        C859   1.492       .  S
C299        C303   1.543       .  S
C299        C301   1.548   1_554  S
C299        H305   1.108       .  S
C300        H306   1.085       .  S
C300        C301   1.369       .  D
C301        C825   1.491       .  S
C302        H307   1.086       .  S
C302        C303   1.368   1_556  D
C303        C781   1.493       .  S
Zn308       O312   1.955       .  S
Zn308       O313   2.031       .  S
Zn308       O317   2.012       .  S
Zn308       O324   1.998       .  S
Zn309       O312   1.946       .  S
Zn309       O314   2.001       .  S
Zn309       O316   2.016       .  S
Zn309       O320   2.001       .  S
Zn310       O312   1.970       .  S
Zn310       O315   2.053       .  S
Zn310       O318   2.041       .  S
Zn310       O321   2.018       .  S
Zn311       O312   1.985       .  S
Zn311       O319   2.034       .  S
Zn311       O322   2.056       .  S
Zn311       O323   2.029       .  S
O313        C325   1.274       .  A
O314        C326   1.273       .  A
O315        C327   1.277       .  A
O316        C325   1.273       .  A
O317        C327   1.274       .  A
O318        C326   1.277       .  A
O319        C328   1.276       .  A
O320        C329   1.272       .  A
O321        C328   1.275       .  A
O322        C329   1.276       .  A
O323        C330   1.276       .  A
O324        C330   1.273       .  A
C325        C759   1.487       .  S
C326        C737   1.482       .  S
C327        C815   1.490       .  S
C328       C1255   1.485       .  S
C329       C1695   1.489       .  S
C330       C1595   1.482       .  S
C331        C332   1.539       .  S
C331        C337   1.529       .  S
C331        C335   1.535       .  S
C331        C991   1.532       .  S
C332        H339   1.082       .  S
C332        C333   1.372   1_545  D
C333        C334   1.547       .  S
C333        C715   1.489       .  S
C334        C338   1.547       .  S
C334        C336   1.549   1_565  S
C334        H340   1.109       .  S
C335        H341   1.086       .  S
C335        C336   1.369       .  D
C336        C693   1.498   1_545  S
C337        H342   1.086       .  S
C337        C338   1.365   1_545  D
C338       C2025   1.490       .  S
C343        C344   1.531       .  S
C343        C349   1.527       .  S
C343        C347   1.529       .  S
C343       C1177   1.522       .  S
C344        H351   1.086       .  S
C344        C345   1.369       .  D
C345        C346   1.550   1_545  S
C345        C671   1.494       .  S
C346        C350   1.552       .  S
C346        C348   1.544       .  S
C346        H352   1.110       .  S
C347        H353   1.086       .  S
C347        C348   1.366   1_545  D
C348        C727   1.487       .  S
C349        H354   1.082       .  S
C349        C350   1.365   1_545  D
C350        C749   1.483       .  S
C355        C356   1.534       .  S
C355        C361   1.536   1_545  S
C355        C359   1.535       .  S
C355       C1045   1.537       .  S
C356        H363   1.085       .  S
C356        C357   1.374   1_545  D
C357        C358   1.551       .  S
C357        C705   1.499       .  S
C358        C362   1.547       .  S
C358        C360   1.544       .  S
C358        H364   1.110       .  S
C359        H365   1.086       .  S
C359        C360   1.366   1_545  D
C360        C649   1.487       .  S
C361        H366   1.084       .  S
C361        C362   1.366       .  D
C362        C627   1.488       .  S
C367        C368   1.542       .  S
C367        C373   1.531   1_545  S
C367        C371   1.531       .  S
C367        C605   1.532       .  S
C368        H375   1.081       .  S
C368        C369   1.369       .  D
C369        C370   1.539   1_545  S
C369        C661   1.485   1_545  S
C370        C374   1.546       .  S
C370        C372   1.545   1_565  S
C370        H376   1.110       .  S
C371        H377   1.086       .  S
C371        C372   1.369       .  D
C372        C683   1.491       .  S
C373        H378   1.086       .  S
C373        C374   1.365       .  D
C374       C1079   1.483       .  S
Zn379       O383   2.000       .  S
Zn379       O384   2.057       .  S
Zn379       O388   2.060       .  S
Zn379       O395   2.068       .  S
Zn380       O383   1.950       .  S
Zn380       O385   2.024       .  S
Zn380       O387   1.997       .  S
Zn380       O391   2.017       .  S
Zn381       O383   1.955       .  S
Zn381       O386   1.981       .  S
Zn381       O389   2.039       .  S
Zn381       O392   2.023       .  S
Zn382       O383   1.963       .  S
Zn382       O390   2.046       .  S
Zn382       O393   2.024       .  S
Zn382       O394   2.010       .  S
O384        C396   1.277       .  A
O385        C397   1.274       .  A
O386        C398   1.272       .  A
O387        C396   1.273       .  A
O388        C398   1.278       .  A
O389        C397   1.274       .  A
O390        C399   1.277       .  A
O391        C400   1.274       .  A
O392        C399   1.275       .  A
O393        C400   1.275       .  A
O394        C401   1.273       .  A
O395        C401   1.280       .  A
C396       C1365   1.488       .  S
C397        C639   1.490       .  S
C398       C1739   1.486       .  S
C399        C583   1.491       .  S
C400        C881   1.482       .  S
C401       C1453   1.490       .  S
C402        C403   1.534       .  S
C402        C408   1.530       .  S
C402        C406   1.538       .  S
C402       C2047   1.531       .  S
C403        H410   1.086       .  S
C403        C404   1.368       .  D
C404        C405   1.543   1_655  S
C404        C539   1.487       .  S
C405        C409   1.549       .  S
C405        C407   1.545   1_455  S
C405        H411   1.109       .  S
C406        H412   1.079       .  S
C406        C407   1.368       .  D
C407        C561   1.493       .  S
C408        H413   1.086       .  S
C408        C409   1.366   1_655  D
C409        C771   1.489       .  S
C414        C415   1.538       .  S
C414        C420   1.525       .  S
C414        C418   1.538       .  S
C414       C1123   1.527       .  S
C415        H422   1.086       .  S
C415        C416   1.370       .  D
C416        C417   1.546   1_455  S
C416        C517   1.493       .  S
C417        C421   1.550       .  S
C417        C419   1.546   1_655  S
C417        H423   1.109       .  S
C418        H424   1.082       .  S
C418        C419   1.368       .  D
C419        C573   1.488       .  S
C420        H425   1.086       .  S
C420        C421   1.365   1_455  D
C421        C595   1.494       .  S
C426        C427   1.536       .  S
C426        C432   1.532       .  S
C426        C430   1.547       .  S
C426        C947   1.536       .  S
C427        H434   1.084       .  S
C427        C428   1.371       .  D
C428        C429   1.544   1_655  S
C428        C495   1.495       .  S
C429        C433   1.546       .  S
C429        C431   1.537   1_455  S
C429        H435   1.106       .  S
C430        H436   1.081       .  S
C430        C431   1.368       .  D
C431        C551   1.489       .  S
C432        H437   1.086       .  S
C432        C433   1.367   1_655  D
C433       C1155   1.494       .  S
C438        C439   1.540       .  S
C438        C444   1.528       .  S
C438        C442   1.539       .  S
C438        C473   1.530       .  S
C439        H446   1.081       .  S
C439        C440   1.367       .  D
C440        C441   1.541       .  S
C440        C507   1.485       .  S
C441        C445   1.543       .  S
C441        C443   1.542       .  S
C441        H447   1.109   1_455  S
C442        H448   1.086       .  S
C442        C443   1.372       .  D
C443        C529   1.491       .  S
C444        H449   1.087       .  S
C444        C445   1.363       .  D
C445       C1013   1.484   1_455  S
Zn450       O454   1.945       .  S
Zn450       O455   1.993       .  S
Zn450       O459   2.004       .  S
Zn450       O466   2.003       .  S
Zn451       O454   1.966       .  S
Zn451       O456   1.989       .  S
Zn451       O458   2.045       .  S
Zn451       O462   2.027       .  S
Zn452       O454   1.987       .  S
Zn452       O457   2.063       .  S
Zn452       O460   2.046       .  S
Zn452       O463   2.066       .  S
Zn453       O454   1.955       .  S
Zn453       O461   1.998       .  S
Zn453       O464   2.013       .  S
Zn453       O465   2.017       .  S
O455        C467   1.271       .  A
O456        C468   1.273       .  A
O457        C469   1.279       .  A
O458        C467   1.275       .  A
O459        C469   1.272       .  A
O460        C468   1.278       .  A
O461        C470   1.272       .  A
O462        C471   1.274       .  A
O463        C470   1.279       .  A
O464        C471   1.273       .  A
O465        C472   1.274       .  A
O466        C472   1.272       .  A
C467        C793   1.485       .  S
C468       C1287   1.482       .  S
C469       C1541   1.492       .  S
C470       C1771   1.485       .  S
C471        C617   1.482       .  S
C472        C485   1.478       .  S
C473        C474   1.406       .  A
C473        C478   1.406       .  A
C474        C475   1.395       .  A
C474        H487   1.077       .  S
C475        C476   1.413       .  A
C475        H488   1.077       .  S
C476        C482   1.429       .  A
C476        C477   1.420       .  A
C477        C479   1.400       .  A
C477        C478   1.404       .  A
C478        H489   1.085       .  S
C479        C480   1.390       .  A
C479        H490   1.084       .  S
C480        C481   1.399       .  A
C480        H491   1.084       .  S
C481        C482   1.422       .  A
C481        C486   1.404       .  A
C482        C483   1.414       .  A
C483        C484   1.394       .  A
C483        H492   1.077       .  S
C484        C485   1.400       .  A
C484        H493   1.083       .  S
C485        C486   1.401       .  A
C486        H494   1.084       .  S
C495        C496   1.402   1_655  A
C495        C500   1.406       .  A
C496        C497   1.395       .  A
C496        H509   1.080       .  S
C497        C498   1.414       .  A
C497        H510   1.077       .  S
C498        C504   1.428   1_556  A
C498        C499   1.419   1_455  A
C499        C501   1.400       .  A
C499        C500   1.404       .  A
C500        H511   1.082       .  S
C501        C502   1.390   1_556  A
C501        H512   1.084       .  S
C502        C503   1.399       .  A
C502        H513   1.084       .  S
C503        C504   1.423   1_655  A
C503        C508   1.406       .  A
C504        C505   1.412       .  A
C505        C506   1.392       .  A
C505        H514   1.077       .  S
C506        C507   1.402       .  A
C506        H515   1.083       .  S
C507        C508   1.400   1_455  A
C508        H516   1.083       .  S
C517        C518   1.402       .  A
C517        C522   1.402       .  A
C518        C519   1.403       .  A
C518        H531   1.083   1_455  S
C519        C520   1.417       .  A
C519        H532   1.078   1_455  S
C520        C526   1.435       .  A
C520        C521   1.422       .  A
C521        C523   1.399       .  A
C521        C522   1.404       .  A
C522        H533   1.084       .  S
C523        C524   1.388       .  A
C523        H534   1.084       .  S
C524        C525   1.398       .  A
C524        H535   1.084       .  S
C525        C526   1.424       .  A
C525        C530   1.406       .  A
C526        C527   1.416       .  A
C527        C528   1.401       .  A
C527        H536   1.078   1_455  S
C528        C529   1.403       .  A
C528        H537   1.083       .  S
C529        C530   1.401       .  A
C530        H538   1.084       .  S
C539        C540   1.400       .  A
C539        C544   1.402   1_655  A
C540        C541   1.396       .  A
C540        H553   1.083       .  S
C541        C542   1.414   1_655  A
C541        H554   1.077       .  S
C542        C548   1.432       .  A
C542        C543   1.423       .  A
C543        C545   1.400       .  A
C543        C544   1.410       .  A
C544        H555   1.085       .  S
C545        C546   1.392       .  A
C545        H556   1.084       .  S
C546        C547   1.401       .  A
C546        H557   1.084       .  S
C547        C548   1.422       .  A
C547        C552   1.408       .  A
C548        C549   1.416   1_455  A
C549        C550   1.397       .  A
C549        H558   1.077       .  S
C550        C551   1.400       .  A
C550        H559   1.083       .  S
C551        C552   1.403   1_655  A
C552        H560   1.084       .  S
C561        C562   1.400   1_655  A
C561        C566   1.406       .  A
C562        C563   1.400       .  A
C562        H575   1.081       .  S
C563        C564   1.418       .  A
C563        H576   1.077       .  S
C564        C570   1.430   1_556  A
C564        C565   1.419   1_455  A
C565        C567   1.400   1_556  A
C565        C566   1.401       .  A
C566        H577   1.083       .  S
C567        C568   1.388       .  A
C567        H578   1.084   1_554  S
C568        C569   1.398       .  A
C568        H579   1.084       .  S
C569        C570   1.424   1_655  A
C569        C574   1.406       .  A
C570        C571   1.411       .  A
C571        C572   1.394       .  A
C571        H580   1.077       .  S
C572        C573   1.404       .  A
C572        H581   1.082       .  S
C573        C574   1.399   1_455  A
C574        H582   1.083       .  S
C583        C584   1.403       .  A
C583        C588   1.404       .  A
C584        C585   1.402       .  A
C584        H597   1.083       .  S
C585        C586   1.415       .  A
C585        H598   1.078       .  S
C586        C592   1.435       .  A
C586        C587   1.423       .  A
C587        C589   1.399       .  A
C587        C588   1.407       .  A
C588        H599   1.084       .  S
C589        C590   1.389       .  A
C589        H600   1.084       .  S
C590        C591   1.400       .  A
C590        H601   1.084       .  S
C591        C592   1.421       .  A
C591        C596   1.403       .  A
C592        C593   1.418       .  A
C593        C594   1.404       .  A
C593        H602   1.078       .  S
C594        C595   1.400       .  A
C594        H603   1.082       .  S
C595        C596   1.405       .  A
C596        H604   1.084       .  S
C605        C606   1.405       .  A
C605        C610   1.408       .  A
C606        C607   1.397       .  A
C606        H619   1.083       .  S
C607        C608   1.413       .  A
C607        H620   1.078       .  S
C608        C614   1.431       .  A
C608        C609   1.421       .  A
C609        C611   1.400       .  A
C609        C610   1.406       .  A
C610        H621   1.077       .  S
C611        C612   1.389       .  A
C611        H622   1.084       .  S
C612        C613   1.399       .  A
C612        H623   1.084       .  S
C613        C614   1.422       .  A
C613        C618   1.405       .  A
C614        C615   1.415       .  A
C615        C616   1.398       .  A
C615        H624   1.078       .  S
C616        C617   1.401       .  A
C616        H625   1.083       .  S
C617        C618   1.402       .  A
C618        H626   1.085       .  S
C627        C628   1.400       .  A
C627        C632   1.400       .  A
C628        C629   1.407       .  A
C628        H641   1.083       .  S
C629        C630   1.420       .  A
C629        H642   1.078       .  S
C630        C636   1.437       .  A
C630        C631   1.422       .  A
C631        C633   1.398       .  A
C631        C632   1.401       .  A
C632        H643   1.085       .  S
C633        C634   1.386       .  A
C633        H644   1.084       .  S
C634        C635   1.398       .  A
C634        H645   1.084       .  S
C635        C636   1.423       .  A
C635        C640   1.404       .  A
C636        C637   1.417       .  A
C637        C638   1.405       .  A
C637        H646   1.078       .  S
C638        C639   1.404       .  A
C638        H647   1.083       .  S
C639        C640   1.402       .  A
C640        H648   1.085       .  S
C649        C650   1.399       .  A
C649        C654   1.403       .  A
C650        C651   1.392       .  A
C650        H663   1.084       .  S
C651        C652   1.414       .  A
C651        H664   1.076       .  S
C652        C658   1.429   1_655  A
C652        C653   1.422       .  A
C653        C655   1.402       .  A
C653        C654   1.411       .  A
C654        H665   1.079       .  S
C655        C656   1.395   1_655  A
C655        H666   1.084       .  S
C656        C657   1.401       .  A
C656        H667   1.084       .  S
C657        C658   1.424       .  A
C657        C662   1.412       .  A
C658        C659   1.412       .  A
C659        C660   1.390       .  A
C659        H668   1.076       .  S
C660        C661   1.399       .  A
C660        H669   1.084   1_565  S
C661        C662   1.403       .  A
C662        H670   1.084       .  S
C671        C672   1.403       .  A
C671        C676   1.405   1_545  A
C672        C673   1.388       .  A
C672        H685   1.083       .  S
C673        C674   1.410       .  A
C673        H686   1.076       .  S
C674        C680   1.430       .  A
C674        C675   1.423   1_545  A
C675        C677   1.402       .  A
C675        C676   1.416       .  A
C676        H687   1.084       .  S
C677        C678   1.397       .  A
C677        H688   1.084       .  S
C678        C679   1.402       .  A
C678        H689   1.084       .  S
C679        C680   1.422   1_565  A
C679        C684   1.415       .  A
C680        C681   1.413       .  A
C681        C682   1.390       .  A
C681        H690   1.076       .  S
C682        C683   1.401       .  A
C682        H691   1.083       .  S
C683        C684   1.405   1_545  A
C684        H692   1.084       .  S
C693        C694   1.404   1_565  A
C693        C698   1.404       .  A
C694        C695   1.396       .  A
C694        H707   1.083       .  S
C695        C696   1.413   1_545  A
C695        H708   1.077       .  S
C696        C702   1.433       .  A
C696        C697   1.423       .  A
C697        C699   1.401       .  A
C697        C698   1.413       .  A
C698        H709   1.080       .  S
C699        C700   1.394       .  A
C699        H710   1.084       .  S
C700        C701   1.401       .  A
C700        H711   1.084       .  S
C701        C702   1.421       .  A
C701        C706   1.411       .  A
C702        C703   1.414   1_565  A
C703        C704   1.397       .  A
C703        H712   1.077       .  S
C704        C705   1.403   1_545  A
C704        H713   1.083       .  S
C705        C706   1.405       .  A
C706        H714   1.079       .  S
C715        C716   1.400       .  A
C715        C720   1.401       .  A
C716        C717   1.402       .  A
C716        H729   1.079       .  S
C717        C718   1.416       .  A
C717        H730   1.078       .  S
C718        C724   1.434   1_655  A
C718        C719   1.423       .  A
C719        C721   1.398       .  A
C719        C720   1.403       .  A
C720        H731   1.085   1_565  S
C721        C722   1.387   1_655  A
C721        H732   1.084   1_565  S
C722        C723   1.399       .  A
C722        H733   1.084   1_565  S
C723        C724   1.422       .  A
C723        C728   1.401       .  A
C724        C725   1.418       .  A
C725        C726   1.403       .  A
C725        H734   1.078       .  S
C726        C727   1.400       .  A
C726        H735   1.083       .  S
C727        C728   1.401       .  A
C728        H736   1.085   1_565  S
C737        C738   1.402       .  A
C737        C742   1.402       .  A
C738        C739   1.395       .  A
C738        H751   1.083       .  S
C739        C740   1.413       .  A
C739        H752   1.077       .  S
C740        C746   1.431       .  A
C740        C741   1.424       .  A
C741        C743   1.399       .  A
C741        C742   1.407       .  A
C742        H753   1.084       .  S
C743        C744   1.389       .  A
C743        H754   1.084       .  S
C744        C745   1.400       .  A
C744        H755   1.084       .  S
C745        C746   1.420       .  A
C745        C750   1.401       .  A
C746        C747   1.419       .  A
C747        C748   1.401       .  A
C747        H756   1.077       .  S
C748        C749   1.397       .  A
C748        H757   1.083       .  S
C749        C750   1.403       .  A
C750        H758   1.085       .  S
C759        C760   1.402       .  A
C759        C764   1.403       .  A
C760        C761   1.401       .  A
C760        H773   1.083       .  S
C761        C762   1.415       .  A
C761        H774   1.078       .  S
C762        C768   1.434       .  A
C762        C763   1.423       .  A
C763        C765   1.399       .  A
C763        C764   1.405       .  A
C764        H775   1.085       .  S
C765        C766   1.388       .  A
C765        H776   1.084       .  S
C766        C767   1.399       .  A
C766        H777   1.084       .  S
C767        C768   1.422       .  A
C767        C772   1.403       .  A
C768        C769   1.418       .  A
C769        C770   1.403       .  A
C769        H778   1.078       .  S
C770        C771   1.399       .  A
C770        H779   1.082       .  S
C771        C772   1.403       .  A
C772        H780   1.085       .  S
C781        C782   1.401       .  A
C781        C786   1.402       .  A
C782        C783   1.400       .  A
C782        H795   1.077       .  S
C783        C784   1.414       .  A
C783        H796   1.078       .  S
C784        C790   1.432       .  A
C784        C785   1.422       .  A
C785        C787   1.398       .  A
C785        C786   1.402       .  A
C786        H797   1.084       .  S
C787        C788   1.386       .  A
C787        H798   1.084       .  S
C788        C789   1.399       .  A
C788        H799   1.084       .  S
C789        C790   1.421       .  A
C789        C794   1.400       .  A
C790        C791   1.418       .  A
C791        C792   1.403       .  A
C791        H800   1.078       .  S
C792        C793   1.402       .  A
C792        H801   1.083       .  S
C793        C794   1.402       .  A
C794        H802   1.085       .  S
C803        C804   1.402       .  A
C803        C808   1.402       .  A
C804        C805   1.395       .  A
C804        H817   1.083       .  S
C805        C806   1.414       .  A
C805        H818   1.078       .  S
C806        C812   1.430       .  A
C806        C807   1.421       .  A
C807        C809   1.401       .  A
C807        C808   1.409       .  A
C808        H819   1.079       .  S
C809        C810   1.394       .  A
C809        H820   1.084       .  S
C810        C811   1.401       .  A
C810        H821   1.084       .  S
C811        C812   1.422       .  A
C811        C816   1.412       .  A
C812        C813   1.412       .  A
C813        C814   1.395       .  A
C813        H822   1.078       .  S
C814        C815   1.404       .  A
C814        H823   1.083       .  S
C815        C816   1.406       .  A
C816        H824   1.084       .  S
C825        C826   1.403       .  A
C825        C830   1.399   1_556  A
C826        C827   1.399       .  A
C826        H839   1.083       .  S
C827        C828   1.415   1_556  A
C827        H840   1.077       .  S
C828        C834   1.432   1_545  A
C828        C829   1.421       .  A
C829        C831   1.399       .  A
C829        C830   1.403       .  A
C830        H841   1.078       .  S
C831        C832   1.388   1_545  A
C831        H842   1.084       .  S
C832        C833   1.399       .  A
C832        H843   1.084       .  S
C833        C834   1.422       .  A
C833        C838   1.405       .  A
C834        C835   1.414   1_554  A
C835        C836   1.399       .  A
C835        H844   1.077       .  S
C836        C837   1.403   1_556  A
C836        H845   1.078       .  S
C837        C838   1.405       .  A
C838        H846   1.083       .  S
C847        C848   1.407       .  A
C847        C852   1.402   1_554  A
C848        C849   1.400       .  A
C848        H861   1.082       .  S
C849        C850   1.414   1_554  A
C849        H862   1.078       .  S
C850        C856   1.435       .  A
C850        C851   1.423       .  A
C851        C853   1.399       .  A
C851        C852   1.406       .  A
C852        H863   1.082       .  S
C853        C854   1.388       .  A
C853        H864   1.084       .  S
C854        C855   1.399       .  A
C854        H865   1.084       .  S
C855        C856   1.422       .  A
C855        C860   1.404       .  A
C856        C857   1.418   1_556  A
C857        C858   1.402       .  A
C857        H866   1.077       .  S
C858        C859   1.401   1_554  A
C858        H867   1.083       .  S
C859        C860   1.403       .  A
C860        H868   1.084       .  S
C869        C870   1.406       .  A
C869        C874   1.406       .  A
C870        C871   1.395       .  A
C870        H883   1.081       .  S
C871        C872   1.412       .  A
C871        H884   1.077       .  S
C872        C878   1.430       .  A
C872        C873   1.421       .  A
C873        C875   1.400       .  A
C873        C874   1.407       .  A
C874        H885   1.083       .  S
C875        C876   1.391       .  A
C875        H886   1.084       .  S
C876        C877   1.400       .  A
C876        H887   1.084       .  S
C877        C878   1.422       .  A
C877        C882   1.406       .  A
C878        C879   1.415       .  A
C879        C880   1.397       .  A
C879        H888   1.077       .  S
C880        C881   1.401       .  A
C880        H889   1.083       .  S
C881        C882   1.403       .  A
C882        H890   1.084       .  S
C891        C892   1.400       .  A
C891        C896   1.402   1_554  A
C892        C893   1.391       .  A
C892        H905   1.084       .  S
C893        C894   1.412       .  A
C893        H906   1.076       .  S
C894        C900   1.430       .  A
C894        C895   1.424   1_554  A
C895        C897   1.401       .  A
C895        C896   1.413       .  A
C896        H907   1.084       .  S
C897        C898   1.395       .  A
C897        H908   1.084       .  S
C898        C899   1.401       .  A
C898        H909   1.084       .  S
C899        C900   1.423   1_556  A
C899        C904   1.411   1_556  A
C900        C901   1.414       .  A
C901        C902   1.393       .  A
C901        H910   1.076       .  S
C902        C903   1.400       .  A
C902        H911   1.083       .  S
C903        C904   1.402       .  A
C904        H912   1.084   1_554  S
C913        C914   1.400       .  A
C913        C918   1.400       .  A
C914        C915   1.400       .  A
C914        H927   1.083       .  S
C915        C916   1.416       .  A
C915        H928   1.078       .  S
C916        C922   1.431   1_565  A
C916        C917   1.422       .  A
C917        C919   1.398       .  A
C917        C918   1.399       .  A
C918        H929   1.084       .  S
C919        C920   1.386   1_565  A
C919        H930   1.084   1_556  S
C920        C921   1.398       .  A
C920        H931   1.084   1_556  S
C921        C922   1.422       .  A
C921        C926   1.399       .  A
C922        C923   1.417       .  A
C923        C924   1.401       .  A
C923        H932   1.078       .  S
C924        C925   1.399       .  A
C924        H933   1.083       .  S
C925        C926   1.399       .  A
C926        H934   1.085   1_556  S
C935        C936   1.402       .  A
C935        C940   1.405       .  A
C936        C937   1.404       .  A
C936        H949   1.083       .  S
C937        C938   1.418       .  A
C937        H950   1.078       .  S
C938        C944   1.436       .  A
C938        C939   1.421       .  A
C939        C941   1.399       .  A
C939        C940   1.404       .  A
C940        H951   1.084       .  S
C941        C942   1.388       .  A
C941        H952   1.084       .  S
C942        C943   1.399       .  A
C942        H953   1.084       .  S
C943        C944   1.422       .  A
C943        C948   1.407       .  A
C944        C945   1.413       .  A
C945        C946   1.400       .  A
C945        H954   1.078       .  S
C946        C947   1.407       .  A
C946        H955   1.083       .  S
C947        C948   1.407       .  A
C948        H956   1.077       .  S
C957        C958   1.405       .  A
C957        C962   1.402       .  A
C958        C959   1.399       .  A
C958        H971   1.083       .  S
C959        C960   1.413       .  A
C959        H972   1.078       .  S
C960        C966   1.434       .  A
C960        C961   1.424       .  A
C961        C963   1.399       .  A
C961        C962   1.408       .  A
C962        H973   1.084       .  S
C963        C964   1.389       .  A
C963        H974   1.084       .  S
C964        C965   1.399       .  A
C964        H975   1.084       .  S
C965        C966   1.421       .  A
C965        C970   1.402       .  A
C966        C967   1.419       .  A
C967        C968   1.403       .  A
C967        H976   1.078       .  S
C968        C969   1.398       .  A
C968        H977   1.083       .  S
C969        C970   1.402       .  A
C970        H978   1.085       .  S
C979        C980   1.400       .  A
C979        C984   1.403       .  A
C980        C981   1.392       .  A
C980        H993   1.084       .  S
C981        C982   1.413       .  A
C981        H994   1.077       .  S
C982        C988   1.430       .  A
C982        C983   1.423       .  A
C983        C985   1.401       .  A
C983        C984   1.413       .  A
C984        H995   1.084       .  S
C985        C986   1.395       .  A
C985        H996   1.084       .  S
C986        C987   1.402       .  A
C986        H997   1.083       .  S
C987        C988   1.421       .  A
C987        C992   1.413       .  A
C988        C989   1.412       .  A
C989        C990   1.391       .  A
C989        H998   1.076       .  S
C990        C991   1.404       .  A
C990        H999   1.084       .  S
C991        C992   1.410       .  A
C992       H1000   1.079       .  S
C1001      C1002   1.401       .  A
C1001      C1006   1.406       .  A
C1002      C1003   1.392       .  A
C1002      H1015   1.083       .  S
C1003      C1004   1.413       .  A
C1003      H1016   1.077       .  S
C1004      C1010   1.428       .  A
C1004      C1005   1.421       .  A
C1005      C1007   1.402       .  A
C1005      C1006   1.411       .  A
C1006      H1017   1.084       .  S
C1007      C1008   1.395       .  A
C1007      H1018   1.084       .  S
C1008      C1009   1.401       .  A
C1008      H1019   1.084       .  S
C1009      C1010   1.423       .  A
C1009      C1014   1.412       .  A
C1010      C1011   1.412       .  A
C1011      C1012   1.390       .  A
C1011      H1020   1.077       .  S
C1012      C1013   1.400       .  A
C1012      H1021   1.084       .  S
C1013      C1014   1.402       .  A
C1014      H1022   1.084       .  S
C1023      C1024   1.405       .  A
C1023      C1028   1.407       .  A
C1024      C1025   1.395       .  A
C1024      H1037   1.081       .  S
C1025      C1026   1.413       .  A
C1025      H1038   1.077       .  S
C1026      C1032   1.429       .  A
C1026      C1027   1.420       .  A
C1027      C1029   1.400       .  A
C1027      C1028   1.406       .  A
C1028      H1039   1.083       .  S
C1029      C1030   1.391       .  A
C1029      H1040   1.084       .  S
C1030      C1031   1.400       .  A
C1030      H1041   1.084       .  S
C1031      C1032   1.422       .  A
C1031      C1036   1.407       .  A
C1032      C1033   1.414       .  A
C1033      C1034   1.394       .  A
C1033      H1042   1.077       .  S
C1034      C1035   1.401       .  A
C1034      H1043   1.083       .  S
C1035      C1036   1.404       .  A
C1036      H1044   1.084       .  S
C1045      C1046   1.406       .  A
C1045      C1050   1.409       .  A
C1046      C1047   1.399       .  A
C1046      H1059   1.083       .  S
C1047      C1048   1.413       .  A
C1047      H1060   1.077       .  S
C1048      C1054   1.433       .  A
C1048      C1049   1.421       .  A
C1049      C1051   1.400       .  A
C1049      C1050   1.408       .  A
C1050      H1061   1.081       .  S
C1051      C1052   1.391       .  A
C1051      H1062   1.084       .  S
C1052      C1053   1.400       .  A
C1052      H1063   1.084       .  S
C1053      C1054   1.422       .  A
C1053      C1058   1.407       .  A
C1054      C1055   1.416       .  A
C1055      C1056   1.400       .  A
C1055      H1064   1.077       .  S
C1056      C1057   1.402       .  A
C1056      H1065   1.083       .  S
C1057      C1058   1.405       .  A
C1058      H1066   1.084       .  S
C1067      C1068   1.403       .  A
C1067      C1072   1.403       .  A
C1068      C1069   1.395       .  A
C1068      H1081   1.083       .  S
C1069      C1070   1.413       .  A
C1069      H1082   1.077       .  S
C1070      C1076   1.431       .  A
C1070      C1071   1.424       .  A
C1071      C1073   1.400       .  A
C1071      C1072   1.408       .  A
C1072      H1083   1.084       .  S
C1073      C1074   1.390       .  A
C1073      H1084   1.084       .  S
C1074      C1075   1.400       .  A
C1074      H1085   1.084       .  S
C1075      C1076   1.420       .  A
C1075      C1080   1.403       .  A
C1076      C1077   1.418       .  A
C1077      C1078   1.399       .  A
C1077      H1086   1.077       .  S
C1078      C1079   1.396       .  A
C1078      H1087   1.083       .  S
C1079      C1080   1.403       .  A
C1080      H1088   1.085       .  S
C1089      C1090   1.406       .  A
C1089      C1094   1.407       .  A
C1090      C1091   1.402       .  A
C1090      H1103   1.083       .  S
C1091      C1092   1.415       .  A
C1091      H1104   1.078       .  S
C1092      C1098   1.435       .  A
C1092      C1093   1.421       .  A
C1093      C1095   1.399       .  A
C1093      C1094   1.404       .  A
C1094      H1105   1.079       .  S
C1095      C1096   1.387       .  A
C1095      H1106   1.084       .  S
C1096      C1097   1.398       .  A
C1096      H1107   1.084       .  S
C1097      C1098   1.422       .  A
C1097      C1102   1.403       .  A
C1098      C1099   1.417       .  A
C1099      C1100   1.404       .  A
C1099      H1108   1.078       .  S
C1100      C1101   1.403       .  A
C1100      H1109   1.083       .  S
C1101      C1102   1.404       .  A
C1102      H1110   1.084       .  S
C1111      C1112   1.399       .  A
C1111      C1116   1.401       .  A
C1112      C1113   1.393       .  A
C1112      H1125   1.084       .  S
C1113      C1114   1.414       .  A
C1113      H1126   1.077       .  S
C1114      C1120   1.429       .  A
C1114      C1115   1.423       .  A
C1115      C1117   1.399       .  A
C1115      C1116   1.407       .  A
C1116      H1127   1.084       .  S
C1117      C1118   1.391       .  A
C1117      H1128   1.084       .  S
C1118      C1119   1.401       .  A
C1118      H1129   1.084       .  S
C1119      C1120   1.420       .  A
C1119      C1124   1.406       .  A
C1120      C1121   1.413       .  A
C1121      C1122   1.393       .  A
C1121      H1130   1.077       .  S
C1122      C1123   1.403       .  A
C1122      H1131   1.083       .  S
C1123      C1124   1.408       .  A
C1124      H1132   1.079       .  S
C1133      C1134   1.403       .  A
C1133      C1138   1.406       .  A
C1134      C1135   1.389       .  A
C1134      H1147   1.083       .  S
C1135      C1136   1.410       .  A
C1135      H1148   1.076       .  S
C1136      C1142   1.430       .  A
C1136      C1137   1.424       .  A
C1137      C1139   1.401       .  A
C1137      C1138   1.415       .  A
C1138      H1149   1.084       .  S
C1139      C1140   1.395       .  A
C1139      H1150   1.084       .  S
C1140      C1141   1.402       .  A
C1140      H1151   1.084       .  S
C1141      C1142   1.419       .  A
C1141      C1146   1.411       .  A
C1142      C1143   1.413       .  A
C1143      C1144   1.393       .  A
C1143      H1152   1.076       .  S
C1144      C1145   1.405       .  A
C1144      H1153   1.077       .  S
C1145      C1146   1.410       .  A
C1146      H1154   1.084       .  S
C1155      C1156   1.404       .  A
C1155      C1160   1.402       .  A
C1156      C1157   1.396       .  A
C1156      H1169   1.083       .  S
C1157      C1158   1.413       .  A
C1157      H1170   1.077       .  S
C1158      C1164   1.433       .  A
C1158      C1159   1.424       .  A
C1159      C1161   1.400       .  A
C1159      C1160   1.410       .  A
C1160      H1171   1.084       .  S
C1161      C1162   1.391       .  A
C1161      H1172   1.084       .  S
C1162      C1163   1.400       .  A
C1162      H1173   1.084       .  S
C1163      C1164   1.422       .  A
C1163      C1168   1.406       .  A
C1164      C1165   1.417       .  A
C1165      C1166   1.399       .  A
C1165      H1174   1.077       .  S
C1166      C1167   1.399       .  A
C1166      H1175   1.083       .  S
C1167      C1168   1.402       .  A
C1168      H1176   1.085       .  S
C1177      C1178   1.403       .  A
C1177      C1182   1.408       .  A
C1178      C1179   1.390       .  A
C1178      H1191   1.083       .  S
C1179      C1180   1.411       .  A
C1179      H1192   1.077       .  S
C1180      C1186   1.423       .  A
C1180      C1181   1.419       .  A
C1181      C1183   1.401       .  A
C1181      C1182   1.403       .  A
C1182      H1193   1.079       .  S
C1183      C1184   1.391       .  A
C1183      H1194   1.084       .  S
C1184      C1185   1.399       .  A
C1184      H1195   1.084       .  S
C1185      C1186   1.423       .  A
C1185      C1190   1.405       .  A
C1186      C1187   1.413       .  A
C1187      C1188   1.390       .  A
C1187      H1196   1.077       .  S
C1188      C1189   1.397       .  A
C1188      H1197   1.084       .  S
C1189      C1190   1.399       .  A
C1190      H1198   1.085       .  S
C1199      C1200   1.397       .  A
C1199      C1204   1.404       .  A
C1200      C1201   1.394       .  A
C1200      H1213   1.084       .  S
C1201      C1202   1.416       .  A
C1201      H1214   1.078       .  S
C1202      C1208   1.424       .  A
C1202      C1203   1.419       .  A
C1203      C1205   1.402       .  A
C1203      C1204   1.406       .  A
C1204      H1215   1.085       .  S
C1205      C1206   1.395       .  A
C1205      H1216   1.084       .  S
C1206      C1207   1.401       .  A
C1206      H1217   1.084       .  S
C1207      C1208   1.423       .  A
C1207      C1212   1.413       .  A
C1208      C1209   1.407       .  A
C1209      C1210   1.388       .  A
C1209      H1218   1.079       .  S
C1210      C1211   1.404       .  A
C1210      H1219   1.083       .  S
C1211      C1212   1.403       .  A
C1212      H1220   1.084       .  S
C1221      C1222   1.406       .  A
C1221      C1226   1.407       .  A
C1222      C1223   1.393       .  A
C1222      H1235   1.081       .  S
C1223      C1224   1.411       .  A
C1223      H1236   1.078       .  S
C1224      C1230   1.427       .  A
C1224      C1225   1.420       .  A
C1225      C1227   1.400       .  A
C1225      C1226   1.407       .  A
C1226      H1237   1.083       .  S
C1227      C1228   1.392       .  A
C1227      H1238   1.084       .  S
C1228      C1229   1.400       .  A
C1228      H1239   1.084       .  S
C1229      C1230   1.421       .  A
C1229      C1234   1.406       .  A
C1230      C1231   1.413       .  A
C1231      C1232   1.393       .  A
C1231      H1240   1.078       .  S
C1232      C1233   1.402       .  A
C1232      H1241   1.083       .  S
C1233      C1234   1.404       .  A
C1234      H1242   1.084       .  S
C1243      C1244   1.405       .  A
C1243      C1248   1.408       .  A
C1244      C1245   1.392       .  A
C1244      H1257   1.082       .  S
C1245      C1246   1.410       .  A
C1245      H1258   1.077       .  S
C1246      C1252   1.429       .  A
C1246      C1247   1.421       .  A
C1247      C1249   1.401       .  A
C1247      C1248   1.411       .  A
C1248      H1259   1.082       .  S
C1249      C1250   1.394       .  A
C1249      H1260   1.084       .  S
C1250      C1251   1.401       .  A
C1250      H1261   1.084       .  S
C1251      C1252   1.422       .  A
C1251      C1256   1.409       .  A
C1252      C1253   1.414       .  A
C1253      C1254   1.394       .  A
C1253      H1262   1.077       .  S
C1254      C1255   1.401       .  A
C1254      H1263   1.083       .  S
C1255      C1256   1.405       .  A
C1256      H1264   1.084       .  S
C1265      C1266   1.399       .  A
C1265      C1270   1.401       .  A
C1266      C1267   1.407       .  A
C1266      H1279   1.083       .  S
C1267      C1268   1.420       .  A
C1267      H1280   1.078       .  S
C1268      C1274   1.437   1_565  A
C1268      C1269   1.422       .  A
C1269      C1271   1.399       .  A
C1269      C1270   1.402       .  A
C1270      H1281   1.085       .  S
C1271      C1272   1.387   1_565  A
C1271      H1282   1.084       .  S
C1272      C1273   1.398       .  A
C1272      H1283   1.084       .  S
C1273      C1274   1.424       .  A
C1273      C1278   1.404       .  A
C1274      C1275   1.418       .  A
C1275      C1276   1.405       .  A
C1275      H1284   1.078       .  S
C1276      C1277   1.400       .  A
C1276      H1285   1.083       .  S
C1277      C1278   1.400       .  A
C1278      H1286   1.085       .  S
C1287      C1288   1.402       .  A
C1287      C1292   1.403       .  A
C1288      C1289   1.391       .  A
C1288      H1301   1.083       .  S
C1289      C1290   1.411       .  A
C1289      H1302   1.077       .  S
C1290      C1296   1.427       .  A
C1290      C1291   1.423       .  A
C1291      C1293   1.400       .  A
C1291      C1292   1.408       .  A
C1292      H1303   1.084       .  S
C1293      C1294   1.392       .  A
C1293      H1304   1.084       .  S
C1294      C1295   1.401       .  A
C1294      H1305   1.084       .  S
C1295      C1296   1.421       .  A
C1295      C1300   1.405       .  A
C1296      C1297   1.416       .  A
C1297      C1298   1.394       .  A
C1297      H1306   1.077       .  S
C1298      C1299   1.396       .  A
C1298      H1307   1.084       .  S
C1299      C1300   1.402       .  A
C1300      H1308   1.085       .  S
C1309      C1310   1.407       .  A
C1309      C1314   1.405       .  A
C1310      C1311   1.400       .  A
C1310      H1323   1.083       .  S
C1311      C1312   1.413       .  A
C1311      H1324   1.078       .  S
C1312      C1318   1.435       .  A
C1312      C1313   1.423       .  A
C1313      C1315   1.398       .  A
C1313      C1314   1.404       .  A
C1314      H1325   1.077       .  S
C1315      C1316   1.385       .  A
C1315      H1326   1.084       .  S
C1316      C1317   1.398       .  A
C1316      H1327   1.084       .  S
C1317      C1318   1.420       .  A
C1317      C1322   1.400       .  A
C1318      C1319   1.419       .  A
C1319      C1320   1.406       .  A
C1319      H1328   1.078       .  S
C1320      C1321   1.403       .  A
C1320      H1329   1.083       .  S
C1321      C1322   1.404       .  A
C1322      H1330   1.084       .  S
C1331      C1332   1.401       .  A
C1331      C1336   1.403       .  A
C1332      C1333   1.395       .  A
C1332      H1345   1.082       .  S
C1333      C1334   1.414       .  A
C1333      H1346   1.077       .  S
C1334      C1340   1.428       .  A
C1334      C1335   1.421       .  A
C1335      C1337   1.400       .  A
C1335      C1336   1.403       .  A
C1336      H1347   1.083       .  S
C1337      C1338   1.390       .  A
C1337      H1348   1.084       .  S
C1338      C1339   1.399       .  A
C1338      H1349   1.084       .  S
C1339      C1340   1.422       .  A
C1339      C1344   1.404       .  A
C1340      C1341   1.413       .  A
C1341      C1342   1.393       .  A
C1341      H1350   1.077       .  S
C1342      C1343   1.402       .  A
C1342      H1351   1.083       .  S
C1343      C1344   1.401       .  A
C1344      H1352   1.083       .  S
C1353      C1354   1.405       .  A
C1353      C1358   1.410       .  A
C1354      C1355   1.393       .  A
C1354      H1367   1.078       .  S
C1355      C1356   1.411       .  A
C1355      H1368   1.077       .  S
C1356      C1362   1.430       .  A
C1356      C1357   1.420       .  A
C1357      C1359   1.402       .  A
C1357      C1358   1.411       .  A
C1358      H1369   1.084       .  S
C1359      C1360   1.395       .  A
C1359      H1370   1.084       .  S
C1360      C1361   1.401       .  A
C1360      H1371   1.084       .  S
C1361      C1362   1.423       .  A
C1361      C1366   1.413       .  A
C1362      C1363   1.412       .  A
C1363      C1364   1.392       .  A
C1363      H1372   1.077       .  S
C1364      C1365   1.402       .  A
C1364      H1373   1.083       .  S
C1365      C1366   1.405       .  A
C1366      H1374   1.084       .  S
C1375      C1376   1.403       .  A
C1375      C1380   1.402       .  A
C1376      C1377   1.404       .  A
C1376      H1389   1.080       .  S
C1377      C1378   1.417       .  A
C1377      H1390   1.078       .  S
C1378      C1384   1.434       .  A
C1378      C1379   1.421       .  A
C1379      C1381   1.397       .  A
C1379      C1380   1.398       .  A
C1380      H1391   1.083       .  S
C1381      C1382   1.383       .  A
C1381      H1392   1.084       .  S
C1382      C1383   1.397       .  A
C1382      H1393   1.084       .  S
C1383      C1384   1.422       .  A
C1383      C1388   1.398       .  A
C1384      C1385   1.418       .  A
C1385      C1386   1.405       .  A
C1385      H1394   1.078       .  S
C1386      C1387   1.403       .  A
C1386      H1395   1.083       .  S
C1387      C1388   1.401       .  A
C1388      H1396   1.084       .  S
C1397      C1398   1.403       .  A
C1397      C1402   1.405       .  A
C1398      C1399   1.393       .  A
C1398      H1411   1.082       .  S
C1399      C1400   1.412       .  A
C1399      H1412   1.077       .  S
C1400      C1406   1.429       .  A
C1400      C1401   1.421       .  A
C1401      C1403   1.401       .  A
C1401      C1402   1.410       .  A
C1402      H1413   1.080       .  S
C1403      C1404   1.393       .  A
C1403      H1414   1.084       .  S
C1404      C1405   1.401       .  A
C1404      H1415   1.084       .  S
C1405      C1406   1.421       .  A
C1405      C1410   1.409       .  A
C1406      C1407   1.414       .  A
C1407      C1408   1.394       .  A
C1407      H1416   1.077       .  S
C1408      C1409   1.399       .  A
C1408      H1417   1.083       .  S
C1409      C1410   1.406       .  A
C1410      H1418   1.084       .  S
C1419      C1420   1.400       .  A
C1419      C1424   1.404       .  A
C1420      C1421   1.401       .  A
C1420      H1433   1.083       .  S
C1421      C1422   1.417       .  A
C1421      H1434   1.077       .  S
C1422      C1428   1.434   1_565  A
C1422      C1423   1.422       .  A
C1423      C1425   1.400       .  A
C1423      C1424   1.405       .  A
C1424      H1435   1.084       .  S
C1425      C1426   1.390   1_565  A
C1425      H1436   1.084       .  S
C1426      C1427   1.399       .  A
C1426      H1437   1.084       .  S
C1427      C1428   1.423       .  A
C1427      C1432   1.407       .  A
C1428      C1429   1.415       .  A
C1429      C1430   1.400       .  A
C1429      H1438   1.077       .  S
C1430      C1431   1.401       .  A
C1430      H1439   1.083       .  S
C1431      C1432   1.402       .  A
C1432      H1440   1.084       .  S
C1441      C1442   1.403       .  A
C1441      C1446   1.401       .  A
C1442      C1443   1.397       .  A
C1442      H1455   1.083       .  S
C1443      C1444   1.413       .  A
C1443      H1456   1.077       .  S
C1444      C1450   1.435       .  A
C1444      C1445   1.426       .  A
C1445      C1447   1.400       .  A
C1445      C1446   1.413       .  A
C1446      H1457   1.084       .  S
C1447      C1448   1.393       .  A
C1447      H1458   1.084       .  S
C1448      C1449   1.401       .  A
C1448      H1459   1.084       .  S
C1449      C1450   1.420       .  A
C1449      C1454   1.408       .  A
C1450      C1451   1.419       .  A
C1451      C1452   1.402       .  A
C1451      H1460   1.077       .  S
C1452      C1453   1.400       .  A
C1452      H1461   1.083       .  S
C1453      C1454   1.406       .  A
C1454      H1462   1.085       .  S
C1463      C1464   1.400       .  A
C1463      C1468   1.404       .  A
C1464      C1465   1.399       .  A
C1464      H1477   1.083       .  S
C1465      C1466   1.417       .  A
C1465      H1478   1.077       .  S
C1466      C1472   1.431       .  A
C1466      C1467   1.420       .  A
C1467      C1469   1.400       .  A
C1467      C1468   1.402       .  A
C1468      H1479   1.084       .  S
C1469      C1470   1.389       .  A
C1469      H1480   1.084       .  S
C1470      C1471   1.400       .  A
C1470      H1481   1.084       .  S
C1471      C1472   1.423       .  A
C1471      C1476   1.407       .  A
C1472      C1473   1.411       .  A
C1473      C1474   1.394       .  A
C1473      H1482   1.077       .  S
C1474      C1475   1.405       .  A
C1474      H1483   1.084       .  S
C1475      C1476   1.407       .  A
C1476      H1484   1.078       .  S
C1485      C1486   1.406       .  A
C1485      C1490   1.406       .  A
C1486      C1487   1.397       .  A
C1486      H1499   1.083       .  S
C1487      C1488   1.413       .  A
C1487      H1500   1.078       .  S
C1488      C1494   1.431       .  A
C1488      C1489   1.421       .  A
C1489      C1491   1.399       .  A
C1489      C1490   1.404       .  A
C1490      H1501   1.081       .  S
C1491      C1492   1.388       .  A
C1491      H1502   1.084       .  S
C1492      C1493   1.399       .  A
C1492      H1503   1.084       .  S
C1493      C1494   1.421       .  A
C1493      C1498   1.403       .  A
C1494      C1495   1.416       .  A
C1495      C1496   1.399       .  A
C1495      H1504   1.078       .  S
C1496      C1497   1.402       .  A
C1496      H1505   1.083       .  S
C1497      C1498   1.403       .  A
C1498      H1506   1.084       .  S
C1507      C1508   1.402       .  A
C1507      C1512   1.405       .  A
C1508      C1509   1.402       .  A
C1508      H1521   1.077       .  S
C1509      C1510   1.415       .  A
C1509      H1522   1.078       .  S
C1510      C1516   1.435   1_556  A
C1510      C1511   1.421       .  A
C1511      C1513   1.399       .  A
C1511      C1512   1.406       .  A
C1512      H1523   1.084       .  S
C1513      C1514   1.389   1_556  A
C1513      H1524   1.084       .  S
C1514      C1515   1.400       .  A
C1514      H1525   1.084       .  S
C1515      C1516   1.422       .  A
C1515      C1520   1.406       .  A
C1516      C1517   1.416       .  A
C1517      C1518   1.403       .  A
C1517      H1526   1.078       .  S
C1518      C1519   1.403       .  A
C1518      H1527   1.082       .  S
C1519      C1520   1.405       .  A
C1520      H1528   1.083       .  S
C1529      C1530   1.400       .  A
C1529      C1534   1.399       .  A
C1530      C1531   1.397       .  A
C1530      H1543   1.084       .  S
C1531      C1532   1.414       .  A
C1531      H1544   1.077       .  S
C1532      C1538   1.435       .  A
C1532      C1533   1.425       .  A
C1533      C1535   1.399       .  A
C1533      C1534   1.411       .  A
C1534      H1545   1.085       .  S
C1535      C1536   1.392       .  A
C1535      H1546   1.084       .  S
C1536      C1537   1.401       .  A
C1536      H1547   1.084       .  S
C1537      C1538   1.421       .  A
C1537      C1542   1.407       .  A
C1538      C1539   1.418       .  A
C1539      C1540   1.402       .  A
C1539      H1548   1.077       .  S
C1540      C1541   1.401       .  A
C1540      H1549   1.083       .  S
C1541      C1542   1.407       .  A
C1542      H1550   1.084       .  S
C1551      C1552   1.405       .  A
C1551      C1556   1.410       .  A
C1552      C1553   1.399       .  A
C1552      H1565   1.083       .  S
C1553      C1554   1.415       .  A
C1553      H1566   1.077       .  S
C1554      C1560   1.434       .  A
C1554      C1555   1.420       .  A
C1555      C1557   1.401       .  A
C1555      C1556   1.408       .  A
C1556      H1567   1.079       .  S
C1557      C1558   1.392       .  A
C1557      H1568   1.084       .  S
C1558      C1559   1.400       .  A
C1558      H1569   1.084       .  S
C1559      C1560   1.424       .  A
C1559      C1564   1.411       .  A
C1560      C1561   1.413       .  A
C1561      C1562   1.397       .  A
C1561      H1570   1.077       .  S
C1562      C1563   1.404       .  A
C1562      H1571   1.083       .  S
C1563      C1564   1.404       .  A
C1564      H1572   1.084       .  S
C1573      C1574   1.403       .  A
C1573      C1578   1.403       .  A
C1574      C1575   1.397       .  A
C1574      H1587   1.082       .  S
C1575      C1576   1.413       .  A
C1575      H1588   1.077       .  S
C1576      C1582   1.432       .  A
C1576      C1577   1.423       .  A
C1577      C1579   1.399       .  A
C1577      C1578   1.408       .  A
C1578      H1589   1.083       .  S
C1579      C1580   1.390       .  A
C1579      H1590   1.084       .  S
C1580      C1581   1.401       .  A
C1580      H1591   1.084       .  S
C1581      C1582   1.420       .  A
C1581      C1586   1.404       .  A
C1582      C1583   1.417       .  A
C1583      C1584   1.400       .  A
C1583      H1592   1.077       .  S
C1584      C1585   1.400       .  A
C1584      H1593   1.082       .  S
C1585      C1586   1.406       .  A
C1586      H1594   1.083       .  S
C1595      C1596   1.400       .  A
C1595      C1600   1.404       .  A
C1596      C1597   1.396       .  A
C1596      H1609   1.083       .  S
C1597      C1598   1.416       .  A
C1597      H1610   1.077       .  S
C1598      C1604   1.429       .  A
C1598      C1599   1.421       .  A
C1599      C1601   1.400       .  A
C1599      C1600   1.403       .  A
C1600      H1611   1.084       .  S
C1601      C1602   1.389       .  A
C1601      H1612   1.084       .  S
C1602      C1603   1.398       .  A
C1602      H1613   1.084       .  S
C1603      C1604   1.425       .  A
C1603      C1608   1.406       .  A
C1604      C1605   1.414       .  A
C1605      C1606   1.393       .  A
C1605      H1614   1.077       .  S
C1606      C1607   1.397       .  A
C1606      H1615   1.084       .  S
C1607      C1608   1.395       .  A
C1608      H1616   1.085       .  S
C1617      C1618   1.404       .  A
C1617      C1622   1.409       .  A
C1618      C1619   1.395       .  A
C1618      H1631   1.083       .  S
C1619      C1620   1.413       .  A
C1619      H1632   1.078       .  S
C1620      C1626   1.427       .  A
C1620      C1621   1.419       .  A
C1621      C1623   1.401       .  A
C1621      C1622   1.404       .  A
C1622      H1633   1.078       .  S
C1623      C1624   1.390       .  A
C1623      H1634   1.084       .  S
C1624      C1625   1.399       .  A
C1624      H1635   1.084       .  S
C1625      C1626   1.423       .  A
C1625      C1630   1.406       .  A
C1626      C1627   1.411       .  A
C1627      C1628   1.393       .  A
C1627      H1636   1.078       .  S
C1628      C1629   1.403       .  A
C1628      H1637   1.083       .  S
C1629      C1630   1.402       .  A
C1630      H1638   1.084       .  S
C1639      C1640   1.402       .  A
C1639      C1644   1.404       .  A
C1640      C1641   1.397       .  A
C1640      H1653   1.079       .  S
C1641      C1642   1.414       .  A
C1641      H1654   1.077       .  S
C1642      C1648   1.430       .  A
C1642      C1643   1.421       .  A
C1643      C1645   1.399       .  A
C1643      C1644   1.402       .  A
C1644      H1655   1.083       .  S
C1645      C1646   1.387       .  A
C1645      H1656   1.084       .  S
C1646      C1647   1.399       .  A
C1646      H1657   1.084       .  S
C1647      C1648   1.421       .  A
C1647      C1652   1.401       .  A
C1648      C1649   1.415       .  A
C1649      C1650   1.398       .  A
C1649      H1658   1.077       .  S
C1650      C1651   1.398       .  A
C1650      H1659   1.077       .  S
C1651      C1652   1.403       .  A
C1652      H1660   1.084       .  S
C1661      C1662   1.398       .  A
C1661      C1666   1.400       .  A
C1662      C1663   1.397       .  A
C1662      H1675   1.080       .  S
C1663      C1664   1.415       .  A
C1663      H1676   1.078       .  S
C1664      C1670   1.432   1_556  A
C1664      C1665   1.424       .  A
C1665      C1667   1.399   1_556  A
C1665      C1666   1.408       .  A
C1666      H1677   1.085       .  S
C1667      C1668   1.391       .  A
C1667      H1678   1.084   1_554  S
C1668      C1669   1.400       .  A
C1668      H1679   1.084       .  S
C1669      C1670   1.423       .  A
C1669      C1674   1.407       .  A
C1670      C1671   1.416       .  A
C1671      C1672   1.398       .  A
C1671      H1680   1.078       .  S
C1672      C1673   1.399       .  A
C1672      H1681   1.084       .  S
C1673      C1674   1.400       .  A
C1674      H1682   1.085       .  S
C1683      C1684   1.408       .  A
C1683      C1688   1.406       .  A
C1684      C1685   1.401       .  A
C1684      H1697   1.084       .  S
C1685      C1686   1.413       .  A
C1685      H1698   1.077       .  S
C1686      C1692   1.436       .  A
C1686      C1687   1.423       .  A
C1687      C1689   1.399       .  A
C1687      C1688   1.407       .  A
C1688      H1699   1.077       .  S
C1689      C1690   1.387       .  A
C1689      H1700   1.084       .  S
C1690      C1691   1.399       .  A
C1690      H1701   1.084       .  S
C1691      C1692   1.421       .  A
C1691      C1696   1.402       .  A
C1692      C1693   1.419       .  A
C1693      C1694   1.406       .  A
C1693      H1702   1.077       .  S
C1694      C1695   1.403       .  A
C1694      H1703   1.083       .  S
C1695      C1696   1.403       .  A
C1696      H1704   1.084       .  S
C1705      C1706   1.403       .  A
C1705      C1710   1.404       .  A
C1706      C1707   1.402       .  A
C1706      H1719   1.083       .  S
C1707      C1708   1.416       .  A
C1707      H1720   1.078       .  S
C1708      C1714   1.436       .  A
C1708      C1709   1.423       .  A
C1709      C1711   1.399       .  A
C1709      C1710   1.407       .  A
C1710      H1721   1.084       .  S
C1711      C1712   1.389       .  A
C1711      H1722   1.084       .  S
C1712      C1713   1.400       .  A
C1712      H1723   1.084       .  S
C1713      C1714   1.422       .  A
C1713      C1718   1.405       .  A
C1714      C1715   1.418       .  A
C1715      C1716   1.404       .  A
C1715      H1724   1.078       .  S
C1716      C1717   1.401       .  A
C1716      H1725   1.083       .  S
C1717      C1718   1.405       .  A
C1718      H1726   1.084       .  S
C1727      C1728   1.408       .  A
C1727      C1732   1.404       .  A
C1728      C1729   1.400       .  A
C1728      H1741   1.083       .  S
C1729      C1730   1.412       .  A
C1729      H1742   1.078       .  S
C1730      C1736   1.433       .  A
C1730      C1731   1.423       .  A
C1731      C1733   1.398       .  A
C1731      C1732   1.403       .  A
C1732      H1743   1.077       .  S
C1733      C1734   1.385       .  A
C1733      H1744   1.084       .  S
C1734      C1735   1.398       .  A
C1734      H1745   1.084       .  S
C1735      C1736   1.420       .  A
C1735      C1740   1.398       .  A
C1736      C1737   1.419       .  A
C1737      C1738   1.405       .  A
C1737      H1746   1.078       .  S
C1738      C1739   1.402       .  A
C1738      H1747   1.083       .  S
C1739      C1740   1.403       .  A
C1740      H1748   1.084       .  S
C1749      C1750   1.407       .  A
C1749      C1754   1.404       .  A
C1750      C1751   1.397       .  A
C1750      H1763   1.082       .  S
C1751      C1752   1.412       .  A
C1751      H1764   1.077       .  S
C1752      C1758   1.437   1_655  A
C1752      C1753   1.425       .  A
C1753      C1755   1.400       .  A
C1753      C1754   1.414       .  A
C1754      H1765   1.084       .  S
C1755      C1756   1.393   1_655  A
C1755      H1766   1.084       .  S
C1756      C1757   1.401       .  A
C1756      H1767   1.084       .  S
C1757      C1758   1.421       .  A
C1757      C1762   1.410       .  A
C1758      C1759   1.418       .  A
C1759      C1760   1.402       .  A
C1759      H1768   1.077       .  S
C1760      C1761   1.401       .  A
C1760      H1769   1.082       .  S
C1761      C1762   1.408       .  A
C1762      H1770   1.083       .  S
C1771      C1772   1.400       .  A
C1771      C1776   1.404       .  A
C1772      C1773   1.403       .  A
C1772      H1785   1.083       .  S
C1773      C1774   1.419       .  A
C1773      H1786   1.077       .  S
C1774      C1780   1.434       .  A
C1774      C1775   1.421       .  A
C1775      C1777   1.400       .  A
C1775      C1776   1.405       .  A
C1776      H1787   1.085       .  S
C1777      C1778   1.390       .  A
C1777      H1788   1.084       .  S
C1778      C1779   1.399       .  A
C1778      H1789   1.084       .  S
C1779      C1780   1.422       .  A
C1779      C1784   1.408       .  A
C1780      C1781   1.412       .  A
C1781      C1782   1.399       .  A
C1781      H1790   1.077       .  S
C1782      C1783   1.409       .  A
C1782      H1791   1.078       .  S
C1783      C1784   1.407       .  A
C1784      H1792   1.084       .  S
C1793      C1794   1.402       .  A
C1793      C1798   1.405       .  A
C1794      C1795   1.392       .  A
C1794      H1807   1.083       .  S
C1795      C1796   1.412       .  A
C1795      H1808   1.076       .  S
C1796      C1802   1.431       .  A
C1796      C1797   1.423       .  A
C1797      C1799   1.401       .  A
C1797      C1798   1.413       .  A
C1798      H1809   1.084       .  S
C1799      C1800   1.395       .  A
C1799      H1810   1.084       .  S
C1800      C1801   1.401       .  A
C1800      H1811   1.084       .  S
C1801      C1802   1.423       .  A
C1801      C1806   1.412       .  A
C1802      C1803   1.414       .  A
C1803      C1804   1.392       .  A
C1803      H1812   1.076       .  S
C1804      C1805   1.400       .  A
C1804      H1813   1.084       .  S
C1805      C1806   1.403       .  A
C1806      H1814   1.084       .  S
C1815      C1816   1.400       .  A
C1815      C1820   1.402       .  A
C1816      C1817   1.395       .  A
C1816      H1829   1.083       .  S
C1817      C1818   1.414       .  A
C1817      H1830   1.077       .  S
C1818      C1824   1.431       .  A
C1818      C1819   1.424       .  A
C1819      C1821   1.400       .  A
C1819      C1820   1.408       .  A
C1820      H1831   1.084       .  S
C1821      C1822   1.391       .  A
C1821      H1832   1.084       .  S
C1822      C1823   1.400       .  A
C1822      H1833   1.084       .  S
C1823      C1824   1.423       .  A
C1823      C1828   1.407       .  A
C1824      C1825   1.417       .  A
C1825      C1826   1.398       .  A
C1825      H1834   1.077       .  S
C1826      C1827   1.395       .  A
C1826      H1835   1.084       .  S
C1827      C1828   1.399       .  A
C1828      H1836   1.085       .  S
C1837      C1838   1.405       .  A
C1837      C1842   1.410       .  A
C1838      C1839   1.394       .  A
C1838      H1851   1.084       .  S
C1839      C1840   1.411       .  A
C1839      H1852   1.078       .  S
C1840      C1846   1.429       .  A
C1840      C1841   1.420       .  A
C1841      C1843   1.401       .  A
C1841      C1842   1.409       .  A
C1842      H1853   1.079       .  S
C1843      C1844   1.393       .  A
C1843      H1854   1.084       .  S
C1844      C1845   1.401       .  A
C1844      H1855   1.084       .  S
C1845      C1846   1.421       .  A
C1845      C1850   1.408       .  A
C1846      C1847   1.413       .  A
C1847      C1848   1.395       .  A
C1847      H1856   1.078       .  S
C1848      C1849   1.402       .  A
C1848      H1857   1.083       .  S
C1849      C1850   1.405       .  A
C1850      H1858   1.084       .  S
C1859      C1860   1.398       .  A
C1859      C1864   1.400       .  A
C1860      C1861   1.404       .  A
C1860      H1873   1.082       .  S
C1861      C1862   1.420       .  A
C1861      H1874   1.078       .  S
C1862      C1868   1.434       .  A
C1862      C1863   1.421       .  A
C1863      C1865   1.399       .  A
C1863      C1864   1.402       .  A
C1864      H1875   1.085       .  S
C1865      C1866   1.388       .  A
C1865      H1876   1.084       .  S
C1866      C1867   1.398       .  A
C1866      H1877   1.084       .  S
C1867      C1868   1.425       .  A
C1867      C1872   1.408       .  A
C1868      C1869   1.413       .  A
C1869      C1870   1.398       .  A
C1869      H1878   1.078       .  S
C1870      C1871   1.404       .  A
C1870      H1879   1.083       .  S
C1871      C1872   1.400       .  A
C1872      H1880   1.084       .  S
C1881      C1882   1.404       .  A
C1881      C1886   1.403       .  A
C1882      C1883   1.391       .  A
C1882      H1895   1.082       .  S
C1883      C1884   1.410       .  A
C1883      H1896   1.077       .  S
C1884      C1890   1.430       .  A
C1884      C1885   1.424       .  A
C1885      C1887   1.400       .  A
C1885      C1886   1.411       .  A
C1886      H1897   1.083       .  S
C1887      C1888   1.392       .  A
C1887      H1898   1.084       .  S
C1888      C1889   1.402       .  A
C1888      H1899   1.084       .  S
C1889      C1890   1.419       .  A
C1889      C1894   1.406       .  A
C1890      C1891   1.418       .  A
C1891      C1892   1.397       .  A
C1891      H1900   1.077       .  S
C1892      C1893   1.397       .  A
C1892      H1901   1.083       .  S
C1893      C1894   1.408       .  A
C1894      H1902   1.084       .  S
C1903      C1904   1.400       .  A
C1903      C1908   1.406       .  A
C1904      C1905   1.399       .  A
C1904      H1917   1.082       .  S
C1905      C1906   1.416       .  A
C1905      H1918   1.077       .  S
C1906      C1912   1.434   1_655  A
C1906      C1907   1.422       .  A
C1907      C1909   1.401       .  A
C1907      C1908   1.410       .  A
C1908      H1919   1.084       .  S
C1909      C1910   1.393   1_655  A
C1909      H1920   1.084       .  S
C1910      C1911   1.401       .  A
C1910      H1921   1.084       .  S
C1911      C1912   1.422       .  A
C1911      C1916   1.411       .  A
C1912      C1913   1.413       .  A
C1913      C1914   1.398       .  A
C1913      H1922   1.077       .  S
C1914      C1915   1.404       .  A
C1914      H1923   1.082       .  S
C1915      C1916   1.406       .  A
C1916      H1924   1.083       .  S
C1925      C1926   1.402       .  A
C1925      C1930   1.402       .  A
C1926      C1927   1.396       .  A
C1926      H1939   1.084       .  S
C1927      C1928   1.413       .  A
C1927      H1940   1.077       .  S
C1928      C1934   1.436       .  A
C1928      C1929   1.426       .  A
C1929      C1931   1.401       .  A
C1929      C1930   1.416       .  A
C1930      H1941   1.084       .  S
C1931      C1932   1.395       .  A
C1931      H1942   1.084       .  S
C1932      C1933   1.402       .  A
C1932      H1943   1.084       .  S
C1933      C1934   1.421       .  A
C1933      C1938   1.411       .  A
C1934      C1935   1.418       .  A
C1935      C1936   1.401       .  A
C1935      H1944   1.077       .  S
C1936      C1937   1.401       .  A
C1936      H1945   1.083       .  S
C1937      C1938   1.409       .  A
C1938      H1946   1.084       .  S
C1947      C1948   1.400       .  A
C1947      C1952   1.405       .  A
C1948      C1949   1.401       .  A
C1948      H1961   1.083       .  S
C1949      C1950   1.418       .  A
C1949      H1962   1.077       .  S
C1950      C1956   1.433       .  A
C1950      C1951   1.421       .  A
C1951      C1953   1.400       .  A
C1951      C1952   1.405       .  A
C1952      H1963   1.085       .  S
C1953      C1954   1.390       .  A
C1953      H1964   1.084       .  S
C1954      C1955   1.399       .  A
C1954      H1965   1.084       .  S
C1955      C1956   1.425       .  A
C1955      C1960   1.409       .  A
C1956      C1957   1.413       .  A
C1957      C1958   1.396       .  A
C1957      H1966   1.077       .  S
C1958      C1959   1.403       .  A
C1958      H1967   1.083       .  S
C1959      C1960   1.399       .  A
C1960      H1968   1.084       .  S
C1969      C1970   1.404       .  A
C1969      C1974   1.401       .  A
C1970      C1971   1.398       .  A
C1970      H1983   1.083       .  S
C1971      C1972   1.412       .  A
C1971      H1984   1.078       .  S
C1972      C1978   1.435       .  A
C1972      C1973   1.426       .  A
C1973      C1975   1.399       .  A
C1973      C1974   1.410       .  A
C1974      H1985   1.084       .  S
C1975      C1976   1.390       .  A
C1975      H1986   1.084       .  S
C1976      C1977   1.400       .  A
C1976      H1987   1.084       .  S
C1977      C1978   1.420       .  A
C1977      C1982   1.404       .  A
C1978      C1979   1.420       .  A
C1979      C1980   1.404       .  A
C1979      H1988   1.078       .  S
C1980      C1981   1.399       .  A
C1980      H1989   1.083       .  S
C1981      C1982   1.405       .  A
C1982      H1990   1.084       .  S
C1991      C1992   1.403       .  A
C1991      C1996   1.401       .  A
C1992      C1993   1.404       .  A
C1992      H2005   1.083       .  S
C1993      C1994   1.418       .  A
C1993      H2006   1.078       .  S
C1994      C2000   1.435       .  A
C1994      C1995   1.422       .  A
C1995      C1997   1.398       .  A
C1995      C1996   1.401       .  A
C1996      H2007   1.085       .  S
C1997      C1998   1.385       .  A
C1997      H2008   1.084       .  S
C1998      C1999   1.397       .  A
C1998      H2009   1.084       .  S
C1999      C2000   1.423       .  A
C1999      C2004   1.401       .  A
C2000      C2001   1.418       .  A
C2001      C2002   1.404       .  A
C2001      H2010   1.078       .  S
C2002      C2003   1.400       .  A
C2002      H2011   1.083       .  S
C2003      C2004   1.397       .  A
C2004      H2012   1.085       .  S
C2013      C2014   1.402       .  A
C2013      C2018   1.403       .  A
C2014      C2015   1.401       .  A
C2014      H2027   1.083       .  S
C2015      C2016   1.415       .  A
C2015      H2028   1.078       .  S
C2016      C2022   1.433       .  A
C2016      C2017   1.423       .  A
C2017      C2019   1.399       .  A
C2017      C2018   1.403       .  A
C2018      H2029   1.084       .  S
C2019      C2020   1.387       .  A
C2019      H2030   1.084       .  S
C2020      C2021   1.399       .  A
C2020      H2031   1.084       .  S
C2021      C2022   1.421       .  A
C2021      C2026   1.401       .  A
C2022      C2023   1.418       .  A
C2023      C2024   1.403       .  A
C2023      H2032   1.078       .  S
C2024      C2025   1.400       .  A
C2024      H2033   1.083       .  S
C2025      C2026   1.403       .  A
C2026      H2034   1.084       .  S
C2035      C2036   1.401       .  A
C2035      C2040   1.402       .  A
C2036      C2037   1.399       .  A
C2036      H2049   1.083       .  S
C2037      C2038   1.416       .  A
C2037      H2050   1.077       .  S
C2038      C2044   1.432       .  A
C2038      C2039   1.422       .  A
C2039      C2041   1.399       .  A
C2039      C2040   1.404       .  A
C2040      H2051   1.084       .  S
C2041      C2042   1.389       .  A
C2041      H2052   1.084       .  S
C2042      C2043   1.399       .  A
C2042      H2053   1.084       .  S
C2043      C2044   1.421       .  A
C2043      C2048   1.404       .  A
C2044      C2045   1.412       .  A
C2045      C2046   1.397       .  A
C2045      H2054   1.077       .  S
C2046      C2047   1.408       .  A
C2046      H2055   1.077       .  S
C2047      C2048   1.405       .  A
C2048      H2056   1.085       .  S
