geometry optimzed in LAMMPS
_audit_creation_date              2020-12-01 
_audit_creation_method            'lammps2cif' 
_symmetry_space_group_name_H-M    'P1' 
_symmetry_Int_Tables_number       1 
_symmetry_cell_setting            triclinic 
loop_ 
_symmetry_equiv_pos_as_xyz 
  x,y,z 
_cell_length_a                    25.94334999 
_cell_length_b                    26.044177374342077 
_cell_length_c                    25.4069285088826 
_cell_angle_alpha                 89.97749847877421 
_cell_angle_beta                  89.56542311509554 
_cell_angle_gamma                 90.35933924225309 
loop_ 
_atom_site_label 
_atom_site_type_symbol 
_atom_site_fract_x 
_atom_site_fract_y 
_atom_site_fract_z 
_atom_site_charge 
C1          C  0.59062206  0.50420366  0.29625709     0.03500
C2          C  0.57489239  0.49083917  0.24540641    -0.12600
C3          C  0.53859467  0.52085141  0.21868065     0.01000
C4          C  0.51857078  0.56492259  0.24277236    -0.11100
C5          C  0.53258214  0.57772864  0.29443634     0.03500
C6          C  0.56977909  0.54809867  0.32011230    -0.10600
H7          H  0.58794277  0.45509195  0.22816002     0.09100
H8          H  0.48889051  0.58664053  0.22306929     0.06600
H9          H  0.57988024  0.55703901  0.36041298     0.06500
C10         C  0.29932567  0.40055274  0.81557293     0.03500
C11         C  0.32061534  0.35665531  0.79233176    -0.12600
C12         C  0.35840344  0.32801537  0.81832487     0.01000
C13         C  0.37275453  0.34208134  0.86955982    -0.11100
C14         C  0.35194271  0.38614615  0.89304010     0.03500
C15         C  0.31473500  0.41483164  0.86618291    -0.10600
H16         H  0.31059788  0.34722481  0.75211540     0.09100
H17         H  0.40307097  0.32132346  0.88934132     0.06600
H18         H  0.30082637  0.45047799  0.88295363     0.06500
C19         C  0.69345082  0.57375749  0.99597721     0.03500
C20         C  0.64111439  0.56351840  0.00508693    -0.12600
C21         C  0.61489196  0.52756735  0.97381100     0.01000
C22         C  0.64157896  0.50191819  0.93323273    -0.11100
C23         C  0.69420089  0.51157283  0.92436681     0.03500
C24         C  0.71928012  0.54854668  0.95499082    -0.10600
H25         H  0.62134590  0.58229591  0.03743945     0.09100
H26         H  0.62191471  0.47322476  0.90977613     0.06600
H27         H  0.76000397  0.55603355  0.94864212     0.06500
C28         C  0.41891687  0.70387984  0.95075228     0.03500
C29         C  0.43781178  0.65466919  0.96096330    -0.12600
C30         C  0.41382968  0.62236600  0.99828260     0.01000
C31         C  0.36948788  0.63979876  0.02551522    -0.11100
C32         C  0.34887423  0.68892725  0.01438547     0.03500
C33         C  0.37461050  0.72041856  0.97743243    -0.10600
H34         H  0.47183915  0.64149195  0.94005837     0.09100
H35         H  0.34995256  0.61444832  0.05305076     0.06600
H36         H  0.35988664  0.75835513  0.96904955     0.06500
C37         C  0.19231789  0.34192782  0.11194223     0.03500
C38         C  0.24501341  0.35104713  0.10264550    -0.12600
C39         C  0.27244524  0.38576197  0.13452732     0.01000
C40         C  0.24643704  0.41161526  0.17538859    -0.11100
C41         C  0.19369589  0.40336900  0.18438161     0.03500
C42         C  0.16738838  0.36753481  0.15330033    -0.10600
H43         H  0.26419210  0.33214107  0.07002460     0.09100
H44         H  0.26653917  0.44053268  0.19815500     0.06600
H45         H  0.12673041  0.36038415  0.16050758     0.06500
C46         C  0.46894283  0.21032918  0.16701881     0.03500
C47         C  0.45137537  0.25947288  0.15527938    -0.12600
C48         C  0.47535055  0.28958312  0.11614094     0.01000
C49         C  0.51796986  0.26935398  0.08780359    -0.11100
C50         C  0.53636964  0.21948010  0.09974513     0.03500
C51         C  0.51176036  0.19116244  0.13994049    -0.10600
H52         H  0.41776315  0.27399815  0.17593914     0.09100
H53         H  0.53636387  0.29191684  0.05708805     0.06600
H54         H  0.52557695  0.15316954  0.14978500     0.06500
O55         O  0.39107357  0.45591382  0.93598337    -0.80500
O56         O  0.50360071  0.52608354  0.13182061    -0.65200
O57         O  0.46618095  0.44828837  0.01108826    -1.11800
C58         C  0.32695431  0.39872222  0.12326009     1.06400
O59         O  0.49665824  0.45311960  0.17549199    -0.78400
O60         O  0.44562496  0.36692463  0.15121876    -0.66000
Ni61       Ni  0.46186932  0.47696268  0.94328077     1.34900
C62         C  0.45525311  0.34240500  0.10923006     0.85100
O63         O  0.54613378  0.51554557  0.03427081    -0.78900
O64         O  0.53273486  0.49819309  0.94808149    -0.89200
C65         C  0.51235716  0.49929832  0.17265350     0.84700
O66         O  0.43936188  0.54440796  0.96074070    -0.67400
O67         O  0.35389221  0.41651801  0.16120725    -0.86700
C68         C  0.43376873  0.56927920  0.00326230     0.85500
C69         C  0.56110991  0.51339259  0.98611626     1.07100
H70         H  0.39767466  0.48976179  0.10029294     0.38900
O71         O  0.42312352  0.46286630  0.09893841    -1.09300
O72         O  0.44532130  0.36018750  0.06371013    -0.66000
Ni73       Ni  0.40536984  0.41964003  0.04188744     1.26300
O74         O  0.44696277  0.55153454  0.04792603    -0.66200
O75         O  0.34407888  0.39325787  0.07614643    -0.78500
C76         C  0.37762215  0.40896859  0.93872662     0.84900
O77         O  0.38781297  0.38260500  0.97942407    -0.65700
Ni78       Ni  0.42525979  0.43519234  0.16723731     1.27400
Ni79       Ni  0.48476825  0.49038231  0.06868904     1.26100
H80         H  0.49179186  0.42166938  0.00850829     0.39500
C81         C  0.46920734  0.19402696  0.67646641     0.03500
C82         C  0.45317773  0.14410575  0.66451728    -0.12600
C83         C  0.47460708  0.11673451  0.62222990     0.01000
C84         C  0.51549621  0.13913929  0.59279938    -0.11100
C85         C  0.53411435  0.18870846  0.60615724     0.03500
C86         C  0.51035858  0.21554160  0.64778693    -0.10600
H87         H  0.42284982  0.12647003  0.68799382     0.09100
H88         H  0.53270154  0.11832646  0.56029425     0.06600
H89         H  0.52332863  0.25411364  0.65695231     0.06500
C90         C  0.42083737  0.71336402  0.43441168     0.03500
C91         C  0.43717001  0.76327027  0.44608665    -0.12600
C92         C  0.41514774  0.79137219  0.48754879     0.01000
C93         C  0.37368797  0.76943899  0.51673772    -0.11100
C94         C  0.35496850  0.71967711  0.50384433     0.03500
C95         C  0.37895137  0.69252442  0.46251800    -0.10600
H96         H  0.46825633  0.78027073  0.42313403     0.09100
H97         H  0.35633616  0.79064802  0.54888191     0.06600
H98         H  0.36584781  0.65398694  0.45339151     0.06500
C99         C  0.59028427  0.90651993  0.79341202     0.03500
C100        C  0.57388510  0.91436902  0.74154818    -0.12600
C101        C  0.53309222  0.88533929  0.72049444     0.01000
C102        C  0.50963334  0.84659686  0.75103794    -0.11100
C103        C  0.52557075  0.83821273  0.80312872     0.03500
C104        C  0.56621118  0.86783624  0.82347037    -0.10600
H105        H  0.59094495  0.94493356  0.71816603     0.09100
H106        H  0.47600214  0.82659661  0.73617902     0.06600
H107        H  0.57725211  0.86241244  0.86412518     0.06500
C108        C  0.70282395  0.84801297  0.50517506     0.03500
C109        C  0.72883999  0.87858263  0.46782794    -0.12600
C110        C  0.70270345  0.91556764  0.43838241     0.01000
C111        C  0.64974861  0.92195117  0.44664702    -0.11100
C112        C  0.62291844  0.89202708  0.48402378     0.03500
C113        C  0.64967902  0.85525438  0.51346907    -0.10600
H114        H  0.76986616  0.87358928  0.46163257     0.09100
H115        H  0.62967639  0.95162258  0.42520477     0.06600
H116        H  0.62895662  0.83164267  0.54175176     0.06500
C117        C  0.29527284  0.00636167  0.32006918     0.03500
C118        C  0.31488623  0.99600634  0.37022923    -0.12600
C119        C  0.35568265  0.02533573  0.39078209     0.01000
C120        C  0.37628920  0.06634725  0.36128969    -0.11100
C121        C  0.35723103  0.07696173  0.31078313     0.03500
C122        C  0.31559406  0.04809976  0.29159645    -0.10600
H123        H  0.30045978  0.96326820  0.39230172     0.09100
H124        H  0.41030280  0.08636032  0.37522359     0.06600
H125        H  0.30176871  0.05576834  0.25225951     0.06500
C126        C  0.19278650  0.06797476  0.60729917     0.03500
C127        C  0.16496658  0.03891833  0.64459130    -0.12600
C128        C  0.18904720  0.00095576  0.67459704     0.01000
C129        C  0.24146548  0.99113528  0.66585692    -0.11100
C130        C  0.26950298  0.01855825  0.62731820     0.03500
C131        C  0.24515361  0.05730151  0.59867631    -0.10600
H132        H  0.12406431  0.04545229  0.64995451     0.09100
H133        H  0.26049551  0.96209781  0.68910197     0.06600
H134        H  0.26745548  0.07996301  0.57083857     0.06500
O135        O  0.49017129  0.95184743  0.67793275    -0.80500
O136        O  0.39217618  0.02840696  0.47730056    -0.65200
O137        O  0.42129476  0.94445039  0.59645070    -1.11800
C138        C  0.56755952  0.90163638  0.49288269     1.06400
O139        O  0.40196805  0.95836002  0.42913274    -0.78400
O140        O  0.44676865  0.87022806  0.45618297    -0.66000
Ni141      Ni  0.41979470  0.96966715  0.66573857     1.34900
C142        C  0.43677476  0.84361916  0.49690588     0.85100
O143        O  0.34310417  0.01304677  0.57126686    -0.78900
O144        O  0.34933005  0.98817650  0.65630172    -0.89200
C145        C  0.38505785  0.00373607  0.43470194     0.84700
O146        O  0.44203506  0.03825300  0.65305597    -0.67400
O147        O  0.54171993  0.91773929  0.45356338    -0.86700
C148        C  0.45338510  0.06451250  0.61252237     0.85500
C149        C  0.32410025  0.00628259  0.61757413     1.07100
H150        H  0.49539033  0.99059536  0.51326854     0.38900
O151        O  0.46981840  0.96333181  0.51244592    -1.09300
O152        O  0.44763666  0.85871516  0.54327800    -0.66000
Ni153      Ni  0.48469594  0.91873949  0.56961539     1.26300
O154        O  0.44448615  0.04885051  0.56597000    -0.66200
O155        O  0.54876931  0.89573675  0.53925410    -0.78500
C156        C  0.50620310  0.90608448  0.67454270     0.84900
O157        O  0.49927699  0.88033172  0.63257993    -0.65700
Ni158      Ni  0.47159720  0.93805960  0.44314450     1.27400
Ni159      Ni  0.40666651  0.98939553  0.53974707     1.26100
H160        H  0.39601699  0.91738962  0.59544037     0.39500
C161        C  0.00073430  0.19565904  0.91675763     0.03500
C162        C  0.03752193  0.22584008  0.94299412    -0.12600
C163        C  0.05980335  0.20933415  0.99011948     0.01000
C164        C  0.04581922  0.16128523  0.01092910    -0.11100
C165        C  0.00897643  0.13056554  0.98570512     0.03500
C166        C  0.98650328  0.14772134  0.93863068    -0.10600
H167        H  0.04772233  0.26339493  0.92771032     0.09100
H168        H  0.06288978  0.14813598  0.04730270     0.06600
H169        H  0.95825731  0.12373334  0.91909112     0.06500
C170        C  0.18654585  0.80560778  0.11637155     0.03500
C171        C  0.20583733  0.83161351  0.16087403    -0.12600
C172        C  0.17745189  0.87047795  0.18615003     0.01000
C173        C  0.12796825  0.88155006  0.16784930    -0.11100
C174        C  0.10960836  0.86003657  0.12124690     0.03500
C175        C  0.13821934  0.82106065  0.09607177    -0.10600
H176        H  0.24479763  0.82404264  0.17355056     0.09100
H177        H  0.10498543  0.91058814  0.18728966     0.06600
H178        H  0.12366071  0.80453093  0.06002385     0.06500
C179        C  0.89312583  0.09304575  0.27074156     0.03500
C180        C  0.90139525  0.07173255  0.22037275    -0.12600
C181        C  0.86895601  0.03169876  0.20230724     0.01000
C182        C  0.83032824  0.01223542  0.23660868    -0.11100
C183        C  0.82290016  0.03275205  0.28697406     0.03500
C184        C  0.85208931  0.07530870  0.30197932    -0.10600
H185        H  0.93385474  0.08463199  0.19668004     0.09100
H186        H  0.80733496  0.97927900  0.22522408     0.06600
H187        H  0.84630108  0.09173185  0.34079068     0.06500
C188        C  0.88687965  0.71033476  0.19074228     0.03500
C189        C  0.84380400  0.68625621  0.16818900    -0.12600
C190        C  0.82069963  0.70558075  0.12291210     0.01000
C191        C  0.83686104  0.75306808  0.10289589    -0.11100
C192        C  0.87753114  0.77991180  0.12650789     0.03500
C193        C  0.90343691  0.75811416  0.16985397    -0.10600
H194        H  0.82933725  0.65041436  0.18437922     0.09100
H195        H  0.81883831  0.76857668  0.06801840     0.06600
H196        H  0.93634806  0.77789183  0.18643348     0.06500
C197        C  0.69792546  0.10288458  0.99396364     0.09100
C198        C  0.68353349  0.08025664  0.94596162    -0.12600
C199        C  0.71332846  0.04166006  0.92242456     0.01000
C200        C  0.76122217  0.02980701  0.94433032    -0.11100
C201        C  0.77637245  0.05071996  0.99263694     0.03500
C202        C  0.74465417  0.08762775  0.01757762    -0.10600
H203        H  0.64619184  0.08934052  0.92970495     0.09100
H204        H  0.78479117  0.00029083  0.92637278     0.06600
H205        H  0.75420935  0.10129736  0.05658702     0.06500
C206        C  0.99745358  0.82309194  0.83953763     0.03500
C207        C  0.03278225  0.84911629  0.80675975    -0.12600
C208        C  0.06087547  0.89120512  0.82487537     0.01000
C209        C  0.05385202  0.90748472  0.87671802    -0.11100
C210        C  0.01767723  0.88354335  0.91064487     0.03500
C211        C  0.98905141  0.84106234  0.89152877    -0.10600
H212        H  0.03723468  0.83754718  0.76599664     0.09100
H213        H  0.07677496  0.93970141  0.89024968     0.06600
H214        H  0.96100495  0.82200578  0.91669291     0.06500
O215        O  0.86137862  0.86854516  0.12170828    -0.80500
O216        O  0.95924209  0.07251607  0.03831407    -0.65200
O217        O  0.89863447  0.93840002  0.04562430    -1.11800
C218        C  0.06918369  0.88920859  0.09380060     1.06400
O219        O  0.02558320  0.04209464  0.99264251    -0.78400
O220        O  0.04170422  0.94168718  0.97679422    -0.66000
Ni221      Ni  0.83515877  0.92559516  0.08119946     1.34900
C222        C  0.01141999  0.90511795  0.96482811     0.85100
O223        O  0.86364058  0.03779032  0.01868710    -0.78900
O224        O  0.80257046  0.98065290  0.04343188    -0.89200
C225        C  0.99716056  0.07919156  0.00701479     0.84700
O226        O  0.84652094  0.96904838  0.13986005    -0.67400
O227        O  0.08323575  0.93232659  0.07440858    -0.86700
C228        C  0.87543310  0.00730075  0.14955357     0.85500
C229        C  0.81678502  0.02245518  0.02120404     1.07100
H230        H  0.99212883  0.98261863  0.10533749     0.38900
O231        O  0.98712170  0.97303003  0.06895925    -1.09300
O232        O  0.97719271  0.88777209  0.99665170    -0.66000
Ni233      Ni  0.95979595  0.90458334  0.06947078     1.26300
O234        O  0.90808387  0.02498704  0.11622965    -0.66200
O235        O  0.02269286  0.87278831  0.09357808    -0.78500
C236        C  0.88991407  0.83169429  0.10665090     0.84900
O237        O  0.92721978  0.83870630  0.07470687    -0.65700
Ni238      Ni  0.05125749  0.98621635  0.03493345     1.27400
Ni239      Ni  0.92630537  0.00665851  0.04411067     1.26100
H240        H  0.89280388  0.92862325  0.00949008     0.39500
C241        C  0.19365530  0.60208970  0.61268416     0.03500
C242        C  0.21036976  0.58054339  0.66019215    -0.12600
C243        C  0.18454780  0.53890505  0.68341126     0.01000
C244        C  0.13733794  0.52268314  0.66277840    -0.11100
C245        C  0.11745919  0.54514632  0.61698360     0.03500
C246        C  0.14619776  0.58471777  0.59135254    -0.10600
H247        H  0.24717375  0.59250911  0.67621766     0.09100
H248        H  0.11847148  0.48900709  0.67930427     0.06600
H249        H  0.13403546  0.59859346  0.55325331     0.06500
C250        C  0.69708082  0.30444106  0.49932171     0.03500
C251        C  0.74397207  0.32265449  0.52115478    -0.12600
C252        C  0.77283064  0.36182580  0.49507700     0.01000
C253        C  0.75339804  0.38331948  0.44860996    -0.11100
C254        C  0.70659590  0.36632788  0.42777426     0.03500
C255        C  0.68105073  0.32465488  0.45099494    -0.10600
H256        H  0.75559301  0.30969494  0.55977306     0.09100
H257        H  0.77207642  0.41691891  0.43168639     0.06600
H258        H  0.64446070  0.31233944  0.43471234     0.06500
C259        C  0.88870780  0.69512382  0.69568687     0.03500
C260        C  0.90344467  0.64700731  0.67505444    -0.12600
C261        C  0.88320484  0.62941411  0.62709892     0.01000
C262        C  0.84689153  0.65899520  0.60053178    -0.11100
C263        C  0.83213106  0.70718817  0.61994188     0.03500
C264        C  0.85340070  0.72491746  0.66729887    -0.10600
H265        H  0.93049687  0.62323505  0.69613263     0.09100
H266        H  0.82972169  0.64401566  0.56490104     0.06600
H267        H  0.84423120  0.76327101  0.68070122     0.06500
C268        C  0.00948392  0.21280166  0.41847906     0.03500
C269        C  0.05289549  0.19209533  0.44320330    -0.12600
C270        C  0.07173457  0.21251987  0.49028007     0.01000
C271        C  0.05110794  0.25845320  0.50928977    -0.11100
C272        C  0.01004588  0.28192826  0.48357180     0.03500
C273        C  0.98864411  0.25892403  0.43843139    -0.10600
H274        H  0.07029416  0.15774770  0.42735183     0.09100
H275        H  0.06716236  0.27625354  0.54412534     0.06600
H276        H  0.95581834  0.27648062  0.41965769     0.06500
C277        C  0.89011019  0.32430512  0.77557874     0.03500
C278        C  0.89866649  0.34087829  0.72297430    -0.12600
C279        C  0.87074231  0.38295263  0.70279928     0.01000
C280        C  0.83504789  0.40769904  0.73610401    -0.11100
C281        C  0.82823112  0.39346058  0.78848844     0.03500
C282        C  0.85554255  0.35166994  0.80790538    -0.10600
H283        H  0.92622450  0.32106499  0.69817044     0.09100
H284        H  0.81212134  0.43922096  0.72161094     0.06600
H285        H  0.85098719  0.34136531  0.84902156     0.06500
C286        C  0.00473965  0.59065812  0.33877448     0.03500
C287        C  0.04646948  0.57108120  0.30993794    -0.12600
C288        C  0.07365794  0.52852315  0.32769384     0.01000
C289        C  0.06363509  0.50995331  0.37826703    -0.11100
C290        C  0.02433395  0.53099181  0.41035400     0.03500
C291        C  0.99387635  0.57109794  0.38967306    -0.10600
H292        H  0.05426992  0.58587814  0.27074852     0.09100
H293        H  0.08501874  0.47679124  0.39133333     0.06600
H294        H  0.96096244  0.58521971  0.41163593     0.06500
O295        O  0.01968342  0.37133642  0.48573636    -0.80500
O296        O  0.93262505  0.57166659  0.57439668    -0.65200
O297        O  0.98855935  0.43677323  0.56559718    -1.11800
C298        C  0.81499183  0.39062581  0.52126499     1.06400
O299        O  0.86770453  0.54066412  0.62247528    -0.78400
O300        O  0.84763400  0.44100270  0.63687961    -0.66000
Ni301      Ni  0.05105536  0.42238213  0.53030858     1.34900
C302        C  0.87701381  0.40395787  0.64833934     0.85100
O303        O  0.02927854  0.53533360  0.58974170    -0.78900
O304        O  0.08661908  0.47264461  0.57215548    -0.89200
C305        C  0.89546815  0.57806628  0.60673159     0.84700
O306        O  0.04499444  0.47040785  0.47489711    -0.67400
O307        O  0.80294357  0.43415269  0.54074565    -0.86700
C308        C  0.01533326  0.50711237  0.46316064     0.85500
C309        C  0.07504531  0.51681444  0.59054447     1.07100
H310        H  0.89507833  0.48242593  0.50848060     0.38900
O311        O  0.90087446  0.47265452  0.54459258    -1.09300
O312        O  0.91020737  0.38615907  0.61592577    -0.66000
Ni313      Ni  0.92598527  0.40383081  0.54279295     1.26300
O314        O  0.98002346  0.52292007  0.49433057    -0.66200
O315        O  0.86109760  0.37328911  0.52035830    -0.78500
C316        C  0.99407715  0.33274164  0.50211705     0.84900
O317        O  0.95745234  0.33785286  0.53526356    -0.65700
Ni318      Ni  0.83815432  0.48667869  0.58006808     1.27400
Ni319      Ni  0.96374648  0.50541317  0.56733482     1.26100
H320        H  0.99434187  0.42704175  0.60179636     0.39500
C321        C  0.91414178  0.78033246  0.81467479    -0.20900
C322        C  0.96819230  0.77963491  0.81587144    -0.08900
C323        C  0.99442867  0.74316935  0.78482316     0.29900
C324        C  0.96774278  0.71283265  0.74869036    -0.20900
C325        C  0.91420583  0.71753597  0.74305107    -0.09000
C326        C  0.88720684  0.74932198  0.77885232     0.29900
F327        F  0.83501644  0.75243474  0.77745716    -0.19500
H328        H  0.89301042  0.80764878  0.83849635     0.18300
H329        H  0.98975283  0.68862744  0.72229714     0.18300
F330        F  0.04662682  0.74004061  0.78617618    -0.19500
C331        C  0.91981291  0.62787504  0.22711788    -0.20900
C332        C  0.91568416  0.68154122  0.23217521    -0.08900
C333        C  0.93762645  0.70512523  0.27685491     0.29900
C334        C  0.96406479  0.67541845  0.31439266    -0.20900
C335        C  0.96771748  0.62188003  0.30845943    -0.09000
C336        C  0.94403018  0.59847836  0.26512010     0.29900
F337        F  0.94692887  0.54688424  0.25799245    -0.19500
H338        H  0.90495536  0.60816599  0.19286416     0.18300
H339        H  0.98295783  0.69427074  0.34703224     0.18300
F340        F  0.93350231  0.75649358  0.28436708    -0.19500
C341        C  0.95786825  0.10007089  0.33972005    -0.20900
C342        C  0.93231855  0.12412583  0.29826188    -0.08900
C343        C  0.93446086  0.17787991  0.29408859     0.29900
C344        C  0.96102139  0.20699325  0.33205780    -0.20900
C345        C  0.98430540  0.18280085  0.37544029    -0.09000
C346        C  0.98199108  0.12864888  0.37861548     0.29900
F347        F  0.99889760  0.10296072  0.42161829    -0.19500
H348        H  0.95484868  0.05880220  0.34468843     0.18300
H349        H  0.96202307  0.24840010  0.32839252     0.18300
F350        F  0.90837501  0.20216543  0.25537735    -0.19500
C351        C  0.91965742  0.21492263  0.86802578    -0.20900
C352        C  0.97361823  0.21776768  0.87040081    -0.08900
C353        C  0.00005350  0.24821626  0.83269847     0.29900
C354        C  0.97268740  0.27972919  0.79803271    -0.20900
C355        C  0.91864062  0.28096572  0.79990427    -0.09000
C356        C  0.89242941  0.24583799  0.83303111     0.29900
F357        F  0.84011670  0.24408622  0.83426850    -0.19500
H358        H  0.89813230  0.19167139  0.89598806     0.18300
H359        H  0.99381624  0.30584446  0.77251337     0.18300
F360        F  0.05236540  0.24960785  0.83119019    -0.19500
C361        C  0.13001111  0.14013300  0.60401606    -0.20900
C362        C  0.16661609  0.10947904  0.57803028    -0.08900
C363        C  0.17562711  0.11726946  0.52391351     0.29900
C364        C  0.14766358  0.15409357  0.49654063    -0.20900
C365        C  0.10861111  0.18225951  0.52181695    -0.09000
C366        C  0.10056203  0.17537056  0.57624603     0.29900
F367        F  0.06176275  0.19965739  0.60211081    -0.19500
H368        H  0.12275414  0.13553849  0.64579511     0.18300
H369        H  0.15494446  0.15879559  0.45478702     0.18300
F370        F  0.20876866  0.08708909  0.49650362    -0.19500
C371        C  0.12470261  0.99926828  0.74818232    -0.20900
C372        C  0.15901863  0.97245957  0.71528587    -0.08900
C373        C  0.16241752  0.91872432  0.72034509     0.29900
C374        C  0.13114960  0.89261952  0.75675320    -0.20900
C375        C  0.09607751  0.91946776  0.78873261    -0.09000
C376        C  0.09337939  0.97320287  0.78432661     0.29900
F377        F  0.05886631  0.00039810  0.81329139    -0.19500
H378        H  0.12162203  0.04064085  0.74542819     0.18300
H379        H  0.13388596  0.85122282  0.75958800     0.18300
F380        F  0.19420906  0.89112637  0.68867611    -0.19500
C381        C  0.23799823  0.88418548  0.26210632    -0.20900
C382        C  0.20213193  0.90427339  0.22643359    -0.08900
C383        C  0.19371127  0.95786050  0.22646993     0.29900
C384        C  0.22094147  0.98988986  0.26045154    -0.20900
C385        C  0.25912778  0.97025724  0.29349368    -0.09000
C386        C  0.26682263  0.91668690  0.29466752     0.29900
F387        F  0.30475708  0.89583605  0.32414488    -0.19500
H388        H  0.24531747  0.84332410  0.26340117     0.18300
H389        H  0.21411401  0.03084406  0.25869412     0.18300
F390        F  0.16242351  0.98044309  0.19082837    -0.19500
C391        C  0.76883353  0.77880783  0.50784274    -0.20900
C392        C  0.73207209  0.80863842  0.53461260    -0.08900
C393        C  0.72649439  0.80275657  0.58942132     0.29900
C394        C  0.75800138  0.76854748  0.61665507    -0.20900
C395        C  0.79606576  0.74011347  0.59001762    -0.09000
C396        C  0.80088155  0.74542079  0.53506779     0.29900
F397        F  0.83831846  0.72052354  0.50777593    -0.19500
H398        H  0.77368126  0.78224843  0.46560258     0.18300
H399        H  0.75325996  0.76498770  0.65889225     0.18300
F400        F  0.69257113  0.83183536  0.61711063    -0.19500
C401        C  0.77959677  0.96848650  0.41379960    -0.20900
C402        C  0.73139166  0.94808251  0.40000649    -0.08900
C403        C  0.71233497  0.95735177  0.34912372     0.29900
C404        C  0.74142812  0.98610909  0.31286970    -0.20900
C405        C  0.79012155  0.00567598  0.32648781    -0.09000
C406        C  0.80898831  0.99629929  0.37748293     0.29900
F407        F  0.85704021  0.01165533  0.39163236    -0.19500
H408        H  0.79509517  0.96211169  0.45271245     0.18300
H409        H  0.72623338  0.99243946  0.27383218     0.18300
F410        F  0.66674174  0.93674443  0.33360642    -0.19500
C411        C  0.66379218  0.92132556  0.85479587    -0.20900
C412        C  0.62837704  0.94152244  0.81889726    -0.08900
C413        C  0.62598163  0.99531617  0.81276913     0.29900
C414        C  0.65687627  0.02764451  0.84350409    -0.20900
C415        C  0.68958905  0.00738998  0.88210997    -0.09000
C416        C  0.69323081  0.95351489  0.88673789     0.29900
F417        F  0.72160727  0.93149569  0.92521635    -0.19500
H418        H  0.66676418  0.88020227  0.86023795     0.18300
H419        H  0.65313894  0.06880102  0.83899263     0.18300
F420        F  0.59096572  0.01708115  0.78037008    -0.19500
C421        C  0.28251999  0.61390103  0.57636489    -0.20900
C422        C  0.23243798  0.63363292  0.58236145    -0.08900
C423        C  0.22297129  0.68373947  0.56384854     0.29900
C424        C  0.26311060  0.71300442  0.54011944    -0.20900
C425        C  0.31317019  0.69268793  0.53443730    -0.09000
C426        C  0.32220222  0.64284882  0.55349901     0.29900
F427        F  0.36992842  0.62191575  0.55017767    -0.19500
H428        H  0.29126470  0.57558798  0.59018065     0.18300
H429        H  0.25489575  0.75104927  0.52530349     0.18300
F430        F  0.17552415  0.70468626  0.56965007    -0.19500
C431        C  0.62637699  0.19502182  0.57220901    -0.20900
C432        C  0.57623689  0.21538250  0.57620310    -0.08900
C433        C  0.56754303  0.26497482  0.55650943     0.29900
C434        C  0.60773495  0.29363257  0.53436103    -0.20900
C435        C  0.65788191  0.27372522  0.52970621    -0.09000
C436        C  0.66701530  0.22396970  0.54919664     0.29900
F437        F  0.71463593  0.20307915  0.54508658    -0.19500
H438        H  0.63422733  0.15719559  0.58781061     0.18300
H439        H  0.59931887  0.33175707  0.51998445     0.18300
F440        F  0.51974535  0.28590308  0.55856890    -0.19500
C441        C  0.40000576  0.16168136  0.29024060    -0.20900
C442        C  0.38550416  0.11199732  0.27443284    -0.08900
C443        C  0.39915939  0.09515378  0.22350047     0.29900
C444        C  0.42610970  0.12747694  0.18922126    -0.20900
C445        C  0.44037464  0.17716429  0.20473003    -0.09000
C446        C  0.42697995  0.19424948  0.25557300     0.29900
F447        F  0.44101729  0.24184426  0.27207573    -0.19500
H448        H  0.39017352  0.17529545  0.32929731     0.18300
H449        H  0.43579977  0.11363232  0.15019075     0.18300
F450        F  0.38776721  0.04678714  0.20716763    -0.19500
C451        C  0.66779615  0.18501082  0.03887231    -0.20900
C452        C  0.65841910  0.13410430  0.02254004    -0.08900
C453        C  0.60878074  0.11324823  0.03032559     0.29900
C454        C  0.56952240  0.14250737  0.05265758    -0.20900
C455        C  0.57832964  0.19320827  0.06942536    -0.09000
C456        C  0.62806718  0.21445387  0.06218524     0.29900
F457        F  0.63867449  0.26275394  0.07911487    -0.19500
H458        H  0.70562313  0.20201447  0.03316481     0.18300
H459        H  0.53188185  0.12488175  0.05786610     0.18300
F460        F  0.59826201  0.06382678  0.01692824    -0.19500
C461        C  0.14269397  0.22531205  0.03796447    -0.20900
C462        C  0.09555369  0.24374918  0.01885970    -0.08900
C463        C  0.08220588  0.29523116  0.02824078     0.29900
C464        C  0.11492062  0.32712260  0.05686067    -0.20900
C465        C  0.16144597  0.30851467  0.07701369    -0.09000
C466        C  0.17563297  0.25749917  0.06662216     0.29900
F467        F  0.22010132  0.23823629  0.08604522    -0.19500
H468        H  0.15380601  0.18587334  0.03093433     0.18300
H469        H  0.10336574  0.36638621  0.06428381     0.18300
F470        F  0.03644490  0.31421888  0.01177799    -0.19500
C471        C  0.11730966  0.45672377  0.20597080    -0.20900
C472        C  0.16443726  0.43590586  0.22189672    -0.08900
C473        C  0.18256816  0.44680920  0.27280334     0.29900
C474        C  0.15376066  0.47806338  0.30679912    -0.20900
C475        C  0.10640965  0.49865835  0.29069352    -0.09000
C476        C  0.08832062  0.48709929  0.23991500     0.29900
F477        F  0.04144618  0.50320516  0.22356947    -0.19500
H478        H  0.10256720  0.44927057  0.16691465     0.18300
H479        H  0.16820977  0.48580460  0.34589956     0.18300
F480        F  0.22712015  0.42599631  0.29026756    -0.19500
C481        C  0.45964293  0.72010310  0.86198885    -0.20900
C482        C  0.44527985  0.73828319  0.91214767    -0.08900
C483        C  0.45613612  0.78970100  0.92513360     0.29900
C484        C  0.48116310  0.82181241  0.88901471    -0.20900
C485        C  0.49623968  0.80360892  0.83917474    -0.09000
C486        C  0.48459778  0.75251754  0.82560169     0.29900
F487        F  0.49864676  0.73355786  0.77789624    -0.19500
H488        H  0.45129396  0.68078669  0.85091001     0.18300
H489        H  0.48911496  0.86118431  0.90022882     0.18300
F490        F  0.44402223  0.80862199  0.97341878    -0.19500
C491        C  0.26577907  0.73799828  0.00988492    -0.20900
C492        C  0.30079025  0.70923294  0.03998589    -0.08900
C493        C  0.29245147  0.70627715  0.09467987     0.29900
C494        C  0.25274068  0.73468394  0.11859279    -0.20900
C495        C  0.22077453  0.76736973  0.08891380    -0.09000
C496        C  0.22683531  0.76714450  0.03374113     0.29900
F497        F  0.19826068  0.79821649  0.00275977    -0.19500
H498        H  0.27029534  0.74020341  0.96752616     0.18300
H499        H  0.24860005  0.73300223  0.16100525     0.18300
F500        F  0.32489565  0.67919489  0.12563171    -0.19500
C501        C  0.80000758  0.62132595  0.08316395    -0.20900
C502        C  0.78517358  0.67215889  0.09309506    -0.08900
C503        C  0.73801536  0.68992561  0.07337402     0.29900
C504        C  0.70705484  0.65737266  0.04291480    -0.20900
C505        C  0.72310149  0.60709751  0.03171543    -0.09000
C506        C  0.76925424  0.58898830  0.05322743     0.29900
F507        F  0.78473616  0.53987190  0.04516047    -0.19500
H508        H  0.83620809  0.60679186  0.09784976     0.18300
H509        H  0.67130519  0.67171573  0.02699677     0.18300
F510        F  0.72189480  0.73836138  0.08378872    -0.19500
C511        C  0.76098496  0.50575219  0.85360089    -0.20900
C512        C  0.72492101  0.48091275  0.88644819    -0.08900
C513        C  0.72287800  0.42685397  0.88682165     0.29900
C514        C  0.75666417  0.39851178  0.85513192    -0.20900
C515        C  0.79303424  0.42349814  0.82272306    -0.09000
C516        C  0.79497659  0.47754807  0.82242720     0.29900
F517        F  0.83097620  0.50320960  0.79339725    -0.19500
H518        H  0.76360890  0.54728030  0.85295841     0.18300
H519        H  0.75446784  0.35697166  0.85593547     0.18300
F520        F  0.68995237  0.40136114  0.91951129    -0.19500
C521        C  0.21966514  0.45261229  0.79887313    -0.20900
C522        C  0.26900377  0.43635669  0.78311450    -0.08900
C523        C  0.29045312  0.45541684  0.73607055     0.29900
C524        C  0.26281671  0.48927282  0.70495280    -0.20900
C525        C  0.21319582  0.50520546  0.71989292    -0.09000
C526        C  0.19156402  0.48646820  0.76716348     0.29900
F527        F  0.14377118  0.50123799  0.78278571    -0.19500
H528        H  0.20278193  0.43856064  0.83528246     0.18300
H529        H  0.28005608  0.50247365  0.66836402     0.18300
F530        F  0.33867200  0.44184714  0.72050722    -0.19500
C531        C  0.36060288  0.25392735  0.75627001    -0.20900
C532        C  0.38741631  0.28868704  0.78827060    -0.08900
C533        C  0.44167561  0.29002076  0.78559584     0.29900
C534        C  0.46813799  0.25780829  0.75075347    -0.20900
C535        C  0.44115575  0.22448723  0.71707359    -0.09000
C536        C  0.38685313  0.22265546  0.72062210     0.29900
F537        F  0.35860110  0.19325941  0.68731652    -0.19500
H538        H  0.31885809  0.25260259  0.75724396     0.18300
H539        H  0.50981712  0.25995737  0.74917613     0.18300
F540        F  0.46905527  0.32482331  0.81388671    -0.19500
C541        C  0.60279814  0.45395382  0.37810961    -0.20900
C542        C  0.62139675  0.46810003  0.32818796    -0.08900
C543        C  0.66834749  0.44742912  0.31001885     0.29900
C544        C  0.69639487  0.41384178  0.34207893    -0.20900
C545        C  0.67739000  0.39998933  0.39202077    -0.09000
C546        C  0.63043253  0.42065328  0.40977910     0.29900
F547        F  0.61195990  0.40995343  0.45871788    -0.19500
H548        H  0.56653941  0.46884983  0.39279226     0.18300
H549        H  0.73280049  0.39872796  0.32809262     0.18300
F550        F  0.68764704  0.46076451  0.26211540    -0.19500
C551        C  0.42269271  0.64935129  0.36037200    -0.20900
C552        C  0.44941172  0.68205457  0.39486168    -0.08900
C553        C  0.50379967  0.68248698  0.39313633     0.29900
C554        C  0.53038147  0.65068809  0.35817480    -0.20900
C555        C  0.50371383  0.61691291  0.32493037    -0.09000
C556        C  0.44939624  0.61672209  0.32614040     0.29900
F557        F  0.42203775  0.58274171  0.29680801    -0.19500
H558        H  0.38096131  0.64814780  0.36072409     0.18300
H559        H  0.57213791  0.65111376  0.35842529     0.18300
F560        F  0.53161530  0.71124342  0.42739128    -0.19500
loop_ 
_geom_bond_atom_site_label_1 
_geom_bond_atom_site_label_2 
_geom_bond_distance 
_geom_bond_site_symmetry_2 
_ccdc_geom_bond_type 
C1            C2   1.401       .  A
C1            C6   1.404       .  A
C1          C542   1.483       .  S
C2            C3   1.406       .  A
C2            H7   1.084       .  S
C3            C4   1.402       .  A
C3           C65   1.468       .  S
C4            C5   1.404       .  A
C4            H8   1.084       .  S
C5            C6   1.404       .  A
C5          C555   1.485       .  S
C6            H9   1.084       .  S
C10          C11   1.402       .  A
C10          C15   1.399       .  A
C10         C522   1.479       .  S
C11          C12   1.404       .  A
C11          H16   1.084       .  S
C12          C13   1.405       .  A
C12         C532   1.483       .  S
C13          C14   1.403       .  A
C13          H17   1.084       .  S
C14          C15   1.405       .  A
C14          C76   1.467       .  S
C15          H18   1.084       .  S
C19          C20   1.400   1_556  A
C19          C24   1.400       .  A
C19         C505   1.474   1_556  S
C20          C21   1.404   1_554  A
C20          H25   1.084       .  S
C21          C22   1.409       .  A
C21          C69   1.472       .  S
C22          C23   1.403       .  A
C22          H26   1.084       .  S
C23          C24   1.399       .  A
C23         C512   1.483       .  S
C24          H27   1.084       .  S
C28          C29   1.400       .  A
C28          C33   1.400       .  A
C28         C482   1.488       .  S
C29          C30   1.406       .  A
C29          H34   1.084       .  S
C30          C31   1.415   1_556  A
C30          C68   1.485   1_556  S
C31          C32   1.419       .  A
C31          H35   1.083       .  S
C32          C33   1.408   1_554  A
C32         C492   1.502       .  S
C33          H36   1.083       .  S
C37          C38   1.404       .  A
C37          C42   1.401       .  A
C37         C465   1.480       .  S
C38          C39   1.408       .  A
C38          H43   1.084       .  S
C39          C40   1.408       .  A
C39          C58   1.478       .  S
C40          C41   1.401       .  A
C40          H44   1.083       .  S
C41          C42   1.400       .  A
C41         C472   1.483       .  S
C42          H45   1.084       .  S
C46          C47   1.394       .  A
C46          C51   1.397       .  A
C46         C445   1.481       .  S
C47          C48   1.405       .  A
C47          H52   1.085       .  S
C48          C49   1.419       .  A
C48          C62   1.485       .  S
C49          C50   1.420       .  A
C49          H53   1.083       .  S
C50          C51   1.406       .  A
C50         C455   1.498       .  S
C51          H54   1.084       .  S
O55         Ni61   1.924       .  S
O55          C76   1.271       .  A
O56         Ni79   1.919       .  S
O56          C65   1.273       .  A
O57         Ni61   1.882   1_554  S
O57         Ni79   1.892       .  S
O57         Ni73   1.904       .  S
O57          H80   0.965       .  S
C58          O75   1.282       .  A
C58          O67   1.280       .  A
O59         Ni78   1.920       .  S
O59          C65   1.269       .  A
O60         Ni78   1.901       .  S
O60          C62   1.268       .  A
Ni61         O64   1.921       .  S
Ni61         O66   1.906       .  S
C62          O72   1.274       .  A
O63         Ni79   1.922       .  S
O63          C69   1.282   1_554  A
O64          C69   1.281       .  A
O66          C68   1.268   1_556  A
O67         Ni78   1.919       .  S
C68          O74   1.275       .  A
H70          O71   0.966       .  S
O71         Ni79   1.905       .  S
O71         Ni73   1.894       .  S
O71         Ni78   1.880       .  S
O72         Ni73   1.951       .  S
Ni73         O77   1.914   1_554  S
Ni73         O75   1.929       .  S
O74         Ni79   1.950       .  S
C76          O77   1.271       .  A
C81          C82   1.397       .  A
C81          C86   1.402       .  A
C81         C535   1.490       .  S
C82          C83   1.403       .  A
C82          H87   1.083       .  S
C83          C84   1.416       .  A
C83         C148   1.485       .  S
C84          C85   1.418       .  A
C84          H88   1.083       .  S
C85          C86   1.408       .  A
C85         C432   1.494       .  S
C86          H89   1.083       .  S
C90          C91   1.397       .  A
C90          C95   1.402       .  A
C90         C552   1.490       .  S
C91          C92   1.403       .  A
C91          H96   1.084       .  S
C92          C93   1.419       .  A
C92         C142   1.488       .  S
C93          C94   1.420       .  A
C93          H97   1.083       .  S
C94          C95   1.409       .  A
C94         C425   1.500       .  S
C95          H98   1.083       .  S
C99         C100   1.403       .  A
C99         C104   1.404       .  A
C99         C412   1.492       .  S
C100        C101   1.406       .  A
C100        H105   1.083       .  S
C101        C102   1.405       .  A
C101        C156   1.469       .  S
C102        C103   1.407       .  A
C102        H106   1.084       .  S
C103        C104   1.404       .  A
C103        C485   1.487       .  S
C104        H107   1.083       .  S
C108        C109   1.405       .  A
C108        C113   1.407       .  A
C108        C392   1.485       .  S
C109        C110   1.401       .  A
C109        H114   1.083       .  S
C110        C111   1.399       .  A
C110        C402   1.484       .  S
C111        C112   1.406       .  A
C111        H115   1.084       .  S
C112        C113   1.405       .  A
C112        C138   1.475       .  S
C113        H116   1.083       .  S
C117        C118   1.403   1_545  A
C117        C122   1.403       .  A
C117        C385   1.489   1_545  S
C118        C119   1.405   1_565  A
C118        H123   1.084       .  S
C119        C120   1.405       .  A
C119        C145   1.470       .  S
C120        C121   1.407       .  A
C120        H124   1.084       .  S
C121        C122   1.403       .  A
C121        C442   1.485       .  S
C122        H125   1.083       .  S
C126        C127   1.405       .  A
C126        C131   1.404       .  A
C126        C362   1.483       .  S
C127        C128   1.401       .  A
C127        H132   1.083       .  S
C128        C129   1.401   1_545  A
C128        C372   1.485   1_545  S
C129        C130   1.407   1_565  A
C129        H133   1.083       .  S
C130        C131   1.400       .  A
C130        C149   1.473       .  S
C131        H134   1.083       .  S
O135       Ni141   1.914       .  S
O135        C156   1.268       .  A
O136       Ni159   1.924   1_545  S
O136        C145   1.273       .  A
O137       Ni141   1.879       .  S
O137       Ni159   1.898       .  S
O137       Ni153   1.902       .  S
O137        H160   0.960       .  S
C138        O155   1.280       .  A
C138        O147   1.279       .  A
O139       Ni158   1.921       .  S
O139        C145   1.271   1_565  A
O140       Ni158   1.905       .  S
O140        C142   1.269       .  A
Ni141       O144   1.910       .  S
Ni141       O146   1.900   1_565  S
C142        O152   1.275       .  A
O143       Ni159   1.932   1_545  S
O143        C149   1.284       .  A
O144        C149   1.278   1_565  A
O146        C148   1.268       .  A
O147       Ni158   1.918       .  S
C148        O154   1.274       .  A
H150        O151   0.969       .  S
O151       Ni159   1.903       .  S
O151       Ni153   1.903       .  S
O151       Ni158   1.880       .  S
O152       Ni153   1.951       .  S
Ni153       O157   1.928       .  S
Ni153       O155   1.926       .  S
O154       Ni159   1.948   1_545  S
C156        O157   1.273       .  A
C161        C162   1.405       .  A
C161        C166   1.412   1_455  A
C161        C352   1.494   1_455  S
C162        C163   1.402       .  A
C162        H167   1.083       .  S
C163        C164   1.403   1_556  A
C163        C462   1.482   1_556  S
C164        C165   1.402   1_554  A
C164        H168   1.084       .  S
C165        C166   1.408   1_455  A
C165        C225   1.473   1_456  S
C166        H169   1.083       .  S
C170        C171   1.412       .  A
C170        C175   1.420       .  A
C170        C495   1.506       .  S
C171        C172   1.408       .  A
C171        H176   1.082       .  S
C172        C173   1.400       .  A
C172        C382   1.495       .  S
C173        C174   1.396       .  A
C173        H177   1.083       .  S
C174        C175   1.412       .  A
C174        C218   1.478       .  S
C175        H178   1.082       .  S
C179        C180   1.411       .  A
C179        C184   1.399       .  A
C179        C342   1.476       .  S
C180        C181   1.415       .  A
C180        H185   1.083       .  S
C181        C182   1.414       .  A
C181        C228   1.492       .  S
C182        C183   1.399       .  A
C182        H186   1.083   1_545  S
C183        C184   1.393       .  A
C183        C405   1.486       .  S
C184        H187   1.085       .  S
C188        C189   1.404       .  A
C188        C193   1.416       .  A
C188        C332   1.499       .  S
C189        C190   1.396       .  A
C189        H194   1.084       .  S
C190        C191   1.398       .  A
C190        C502   1.477       .  S
C191        C192   1.401       .  A
C191        H195   1.084       .  S
C192        C193   1.415       .  A
C192        C236   1.472       .  S
C193        H196   1.083       .  S
C197        C198   1.407       .  A
C197        C202   1.416   1_556  A
C197        C452   1.496   1_556  S
C198        C199   1.403       .  A
C198        H203   1.083       .  S
C199        C200   1.401       .  A
C199        C415   1.493       .  S
C200        C201   1.401       .  A
C200        H204   1.084       .  S
C201        C202   1.416   1_556  A
C201        C229   1.479   1_556  S
C202        H205   1.083       .  S
C206        C207   1.405   1_655  A
C206        C211   1.417       .  A
C206        C322   1.488       .  S
C207        C208   1.393       .  A
C207        H212   1.084       .  S
C208        C209   1.395       .  A
C208        C375   1.482       .  S
C209        C210   1.412       .  A
C209        H213   1.083       .  S
C210        C211   1.417   1_455  A
C210        C222   1.495       .  S
C211        H214   1.083       .  S
O215       Ni221   1.937       .  S
O215        C236   1.273       .  A
O216       Ni239   1.917       .  S
O216        C225   1.271       .  A
O217       Ni221   1.900       .  S
O217       Ni239   1.913   1_565  S
O217       Ni233   1.922       .  S
O217        H240   0.966       .  S
C218        O235   1.277       .  A
C218        O227   1.276       .  A
O219       Ni238   1.933   1_546  S
O219        C225   1.271   1_456  A
O220       Ni238   1.895   1_556  S
O220        C222   1.269       .  A
Ni221       O224   1.928       .  S
Ni221       O226   1.895       .  S
C222        O232   1.277   1_455  A
O223       Ni239   1.936       .  S
O223        C229   1.278       .  A
O224        C229   1.277   1_565  A
O226        C228   1.269   1_565  A
O227       Ni238   1.921       .  S
C228        O234   1.277       .  A
H230        O231   0.967       .  S
O231       Ni239   1.920   1_565  S
O231       Ni233   1.914       .  S
O231       Ni238   1.899   1_655  S
O232       Ni233   1.952   1_556  S
Ni233       O237   1.912       .  S
Ni233       O235   1.938   1_655  S
O234       Ni239   1.949       .  S
C236        O237   1.271       .  A
C241        C242   1.404       .  A
C241        C246   1.420       .  A
C241        C422   1.503       .  S
C242        C243   1.399       .  A
C242        H247   1.085       .  S
C243        C244   1.399       .  A
C243        C525   1.483       .  S
C244        C245   1.405       .  A
C244        H248   1.085       .  S
C245        C246   1.423       .  A
C245        C309   1.486       .  S
C246        H249   1.083       .  S
C250        C251   1.420       .  A
C250        C255   1.403       .  A
C250        C435   1.499       .  S
C251        C252   1.422       .  A
C251        H256   1.083       .  S
C252        C253   1.405       .  A
C252        C298   1.484       .  S
C253        C254   1.398       .  A
C253        H257   1.085       .  S
C254        C255   1.396       .  A
C254        C545   1.479       .  S
C255        H258   1.085       .  S
C259        C260   1.412       .  A
C259        C264   1.407       .  A
C259        C325   1.495       .  S
C260        C261   1.406       .  A
C260        H265   1.083       .  S
C261        C262   1.398       .  A
C261        C305   1.470       .  S
C262        C263   1.403       .  A
C262        H266   1.084       .  S
C263        C264   1.405       .  A
C263        C395   1.486       .  S
C264        H267   1.083       .  S
C268        C269   1.404       .  A
C268        C273   1.413   1_455  A
C268        C345   1.496   1_455  S
C269        C270   1.399       .  A
C269        H274   1.081       .  S
C270        C271   1.398       .  A
C270        C365   1.483       .  S
C271        C272   1.398       .  A
C271        H275   1.084       .  S
C272        C273   1.410   1_455  A
C272        C316   1.466   1_455  S
C273        H276   1.083       .  S
C277        C278   1.420       .  A
C277        C282   1.409       .  A
C277        C355   1.490       .  S
C278        C279   1.415       .  A
C278        H283   1.083       .  S
C279        C280   1.409       .  A
C279        C302   1.495       .  S
C280        C281   1.391       .  A
C280        H284   1.083       .  S
C281        C282   1.394       .  A
C281        C515   1.483       .  S
C282        H285   1.084       .  S
C286        C287   1.401       .  A
C286        C291   1.415   1_455  A
C286        C335   1.482   1_455  S
C287        C288   1.394       .  A
C287        H292   1.085       .  S
C288        C289   1.395       .  A
C288        C475   1.486       .  S
C289        C290   1.414       .  A
C289        H293   1.083       .  S
C290        C291   1.417   1_455  A
C290        C308   1.495       .  S
C291        H294   1.083       .  S
O295       Ni301   1.927       .  S
O295        C316   1.270   1_455  A
O296       Ni319   1.918       .  S
O296        C305   1.274       .  A
O297       Ni301   1.887   1_655  S
O297       Ni319   1.904       .  S
O297       Ni313   1.925       .  S
O297        H320   0.967       .  S
C298        O315   1.281       .  A
C298        O307   1.277       .  A
O299       Ni318   1.930       .  S
O299        C305   1.271       .  A
O300       Ni318   1.889       .  S
O300        C302   1.268       .  A
Ni301       O304   1.923       .  S
Ni301       O306   1.891       .  S
C302        O312   1.276       .  A
O303       Ni319   1.955   1_455  S
O303        C309   1.285       .  A
O304        C309   1.278       .  A
O306        C308   1.268       .  A
O307       Ni318   1.924       .  S
C308        O314   1.277   1_455  A
H310        O311   0.965       .  S
O311       Ni319   1.929       .  S
O311       Ni313   1.911       .  S
O311       Ni318   1.892       .  S
O312       Ni313   1.954       .  S
Ni313       O317   1.916       .  S
Ni313       O315   1.947       .  S
O314       Ni319   1.952       .  S
C316        O317   1.273       .  A
C321        C322   1.403       .  A
C321        C326   1.404       .  A
C321        H328   1.083       .  S
C322        C323   1.410       .  A
C323        C324   1.396       .  A
C323        F330   1.358   1_655  S
C324        C325   1.403       .  A
C324        H329   1.083       .  S
C325        C326   1.415       .  A
C326        F327   1.358       .  S
C331        C332   1.408       .  A
C331        C336   1.388       .  A
C331        H338   1.083       .  S
C332        C333   1.413       .  A
C333        C334   1.412       .  A
C333        F340   1.356       .  S
C334        C335   1.406       .  A
C334        H339   1.083       .  S
C335        C336   1.403       .  A
C336        F337   1.358       .  S
C341        C342   1.399       .  A
C341        C346   1.388       .  A
C341        H348   1.084       .  S
C342        C343   1.405       .  A
C343        C344   1.409       .  A
C343        F350   1.357       .  S
C344        C345   1.411       .  A
C344        H349   1.083       .  S
C345        C346   1.413       .  A
C346        F347   1.358       .  S
C351        C352   1.403       .  A
C351        C356   1.398       .  A
C351        H358   1.083       .  S
C352        C353   1.414   1_655  A
C353        C354   1.403   1_455  A
C353        F360   1.358       .  S
C354        C355   1.403       .  A
C354        H359   1.083       .  S
C355        C356   1.411       .  A
C356        F357   1.358       .  S
C361        C362   1.406       .  A
C361        C366   1.393       .  A
C361        H368   1.083       .  S
C362        C363   1.407       .  A
C363        C364   1.395       .  A
C363        F370   1.357       .  S
C364        C365   1.406       .  A
C364        H369   1.083       .  S
C365        C366   1.408       .  A
C366        F367   1.358       .  S
C371        C372   1.406       .  A
C371        C376   1.395       .  A
C371        H378   1.083   1_565  S
C372        C373   1.409       .  A
C373        C374   1.399       .  A
C373        F380   1.357       .  S
C374        C375   1.405       .  A
C374        H379   1.083       .  S
C375        C376   1.406       .  A
C376        F377   1.358   1_565  S
C381        C382   1.407       .  A
C381        C386   1.401       .  A
C381        H388   1.083       .  S
C382        C383   1.414       .  A
C383        C384   1.394       .  A
C383        F390   1.357       .  S
C384        C385   1.402       .  A
C384        H389   1.083   1_565  S
C385        C386   1.411       .  A
C386        F387   1.357       .  S
C391        C392   1.406       .  A
C391        C396   1.394       .  A
C391        H398   1.083       .  S
C392        C393   1.407       .  A
C393        C394   1.399       .  A
C393        F400   1.357       .  S
C394        C395   1.407       .  A
C394        H399   1.083       .  S
C395        C396   1.407       .  A
C396        F397   1.357       .  S
C401        C402   1.403       .  A
C401        C406   1.393       .  A
C401        H408   1.083       .  S
C402        C403   1.409       .  A
C403        C404   1.400       .  A
C403        F410   1.357       .  S
C404        C405   1.405   1_565  A
C404        H409   1.083       .  S
C405        C406   1.410   1_545  A
C406        F407   1.358   1_565  S
C411        C412   1.404       .  A
C411        C416   1.395       .  A
C411        H418   1.083       .  S
C412        C413   1.411       .  A
C413        C414   1.401   1_565  A
C413        F420   1.357   1_565  S
C414        C415   1.407       .  A
C414        H419   1.083       .  S
C415        C416   1.412   1_545  A
C416        F417   1.357       .  S
C421        C422   1.407       .  A
C421        C426   1.395       .  A
C421        H428   1.084       .  S
C422        C423   1.411       .  A
C423        C424   1.417       .  A
C423        F430   1.357       .  S
C424        C425   1.412       .  A
C424        H429   1.083       .  S
C425        C426   1.407       .  A
C426        F427   1.358       .  S
C431        C432   1.411       .  A
C431        C436   1.415       .  A
C431        H438   1.083       .  S
C432        C433   1.405       .  A
C433        C434   1.394       .  A
C433        F440   1.358       .  S
C434        C435   1.408       .  A
C434        H439   1.082       .  S
C435        C436   1.409       .  A
C436        F437   1.356       .  S
C441        C442   1.405       .  A
C441        C446   1.403       .  A
C441        H448   1.083       .  S
C442        C443   1.410       .  A
C443        C444   1.392       .  A
C443        F450   1.358       .  S
C444        C445   1.401       .  A
C444        H449   1.084       .  S
C445        C446   1.408       .  A
C446        F447   1.357       .  S
C451        C452   1.410       .  A
C451        C456   1.415       .  A
C451        H458   1.083       .  S
C452        C453   1.407       .  A
C453        C454   1.393       .  A
C453        F460   1.358       .  S
C454        C455   1.406       .  A
C454        H459   1.084       .  S
C455        C456   1.412       .  A
C456        F457   1.357       .  S
C461        C462   1.406       .  A
C461        C466   1.401       .  A
C461        H468   1.083       .  S
C462        C463   1.407       .  A
C463        C464   1.393       .  A
C463        F470   1.358       .  S
C464        C465   1.404       .  A
C464        H469   1.084       .  S
C465        C466   1.406       .  A
C466        F467   1.357       .  S
C471        C472   1.403       .  A
C471        C476   1.390       .  A
C471        H478   1.083       .  S
C472        C473   1.408       .  A
C473        C474   1.402       .  A
C473        F480   1.357       .  S
C474        C475   1.407       .  A
C474        H479   1.083       .  S
C475        C476   1.408       .  A
C476        F477   1.357       .  S
C481        C482   1.408       .  A
C481        C486   1.404       .  A
C481        H488   1.083       .  S
C482        C483   1.407       .  A
C483        C484   1.395       .  A
C483        F490   1.358       .  S
C484        C485   1.406       .  A
C484        H489   1.083       .  S
C485        C486   1.406       .  A
C486        F487   1.357       .  S
C491        C492   1.411       .  A
C491        C496   1.402       .  A
C491        H498   1.083   1_554  S
C492        C493   1.407       .  A
C493        C494   1.407       .  A
C493        F500   1.357       .  S
C494        C495   1.414       .  A
C494        H499   1.083       .  S
C495        C496   1.409       .  A
C496        F497   1.356       .  S
C501        C502   1.403       .  A
C501        C506   1.388       .  A
C501        H508   1.084       .  S
C502        C503   1.406       .  A
C503        C504   1.402       .  A
C503        F510   1.357       .  S
C504        C505   1.405       .  A
C504        H509   1.083       .  S
C505        C506   1.404       .  A
C506        F507   1.358       .  S
C511        C512   1.404       .  A
C511        C516   1.394       .  A
C511        H518   1.083       .  S
C512        C513   1.409       .  A
C513        C514   1.400       .  A
C513        F520   1.357       .  S
C514        C515   1.404       .  A
C514        H519   1.083       .  S
C515        C516   1.408       .  A
C516        F517   1.358       .  S
C521        C522   1.406       .  A
C521        C526   1.405       .  A
C521        H528   1.083       .  S
C522        C523   1.404       .  A
C523        C524   1.390       .  A
C523        F530   1.358       .  S
C524        C525   1.405       .  A
C524        H529   1.083       .  S
C525        C526   1.408       .  A
C526        F527   1.357       .  S
C531        C532   1.402       .  A
C531        C536   1.395       .  A
C531        H538   1.083       .  S
C532        C533   1.409       .  A
C533        C534   1.399       .  A
C533        F540   1.358       .  S
C534        C535   1.406       .  A
C534        H539   1.083       .  S
C535        C536   1.411       .  A
C536        F537   1.357       .  S
C541        C542   1.402       .  A
C541        C546   1.389       .  A
C541        H548   1.083       .  S
C542        C543   1.409       .  A
C543        C544   1.405       .  A
C543        F550   1.357       .  S
C544        C545   1.404       .  A
C544        H549   1.083       .  S
C545        C546   1.406       .  A
C546        F547   1.357       .  S
C551        C552   1.406       .  A
C551        C556   1.399       .  A
C551        H558   1.083       .  S
C552        C553   1.411       .  A
C553        C554   1.396       .  A
C553        F560   1.357       .  S
C554        C555   1.403       .  A
C554        H559   1.083       .  S
C555        C556   1.409       .  A
C556        F557   1.358       .  S
