geometry optimzed in LAMMPS
_audit_creation_date              2020-12-01 
_audit_creation_method            'lammps2cif' 
_symmetry_space_group_name_H-M    'P1' 
_symmetry_Int_Tables_number       1 
_symmetry_cell_setting            triclinic 
loop_ 
_symmetry_equiv_pos_as_xyz 
  x,y,z 
_cell_length_a                    39.31406382 
_cell_length_b                    34.02099164814239 
_cell_length_c                    39.00707822358147 
_cell_angle_alpha                 80.658261879868 
_cell_angle_beta                  77.65786793311229 
_cell_angle_gamma                 89.77312712892402 
loop_ 
_atom_site_label 
_atom_site_type_symbol 
_atom_site_fract_x 
_atom_site_fract_y 
_atom_site_fract_z 
_atom_site_charge 
Zr1        Zr  0.95306305  0.97395047  0.46667060     2.17500
O2          O  0.91531198  0.99740158  0.42586877    -0.50600
O3          O  0.93760443  0.90307374  0.47689954    -0.73800
O4          O  0.97729883  0.96568887  0.40529912    -0.80600
O5          O  0.88379663  0.99628068  0.54420815    -0.82400
O6          O  0.03547819  0.97988399  0.39323834    -0.78000
O7          O  0.89126394  0.97465223  0.49117220    -0.89600
O8          O  0.96539874  0.87197308  0.51866529    -0.75600
O9          O  0.00642279  0.94223120  0.47084481    -0.85100
O10         O  0.94903374  0.95110798  0.52854770    -0.84800
O11         O  0.99708230  0.02536299  0.44207702    -0.71500
O12         O  0.94348239  0.03177045  0.49530840    -0.83600
Zr13       Zr  0.03924088  0.02783468  0.53747451     2.26400
Zr14       Zr  0.05058392  0.99359400  0.44762496     2.06300
Zr15       Zr  0.94079572  0.00851470  0.55683788     2.10000
Zr16       Zr  0.00269462  0.92031046  0.53266063     1.78800
O17         O  0.91238093  0.06969307  0.57017825    -0.92500
O18         O  0.04500558  0.87498023  0.50684918    -0.40300
O19         O  0.99449757  0.97714310  0.56184621    -0.76900
O20         O  0.04849470  0.96952539  0.50945238    -0.95600
O21         O  0.04246688  0.05100757  0.47609551    -0.88900
O22         O  0.98545321  0.05937671  0.53390563    -0.91700
C23         C  0.94396953  0.87221593  0.49811865     1.02000
C24         C  0.87191751  0.98398583  0.51938353     1.15000
C25         C  0.00734489  0.97099959  0.38398475     1.05700
O26         O  0.08575656  0.93893424  0.42828080    -0.93900
O27         O  0.10852318  0.00359774  0.45784294    -0.89600
O28         O  0.10144837  0.02278056  0.51183726    -0.82800
C29         C  0.12072963  0.01418841  0.48310553     1.12400
O30         O  0.94094680  0.10686319  0.44478051    -0.95900
Zr31       Zr  0.98882180  0.08179218  0.47206684     1.88900
O32         O  0.05311940  0.09926117  0.52621669    -0.72500
O33         O  0.08198855  0.04495206  0.40089706    -0.51800
O34         O  0.01108590  0.11166268  0.41015019    -0.96400
O35         O  0.96194353  0.13856813  0.49731610    -0.53700
O36         O  0.03580102  0.12528914  0.47565315    -0.73000
C37         C  0.05316550  0.12709125  0.49964491     0.99300
O38         O  0.07513280  0.02162960  0.58176811    -0.61800
O39         O  0.90440965  0.96897034  0.60963336    -0.56600
O40         O  0.01519086  0.02465106  0.60108699    -0.93300
O41         O  0.95676720  0.01338328  0.61258525    -0.91800
O42         O  0.97132533  0.88172341  0.58852629    -0.92100
O43         O  0.03804925  0.89517326  0.57514322    -0.90900
C44         C  0.98517521  0.01894297  0.62252598     1.18200
H45         H  0.92957010  0.93262317  0.53851281     0.34100
H46         H  0.06996895  0.95714807  0.51271750     0.45000
H47         H  0.98220449  0.08086086  0.54760938     0.38500
H48         H  0.99686136  0.03476242  0.41742144     0.35000
H49         H  0.03780533  0.84853957  0.52145008     0.26800
H50         H  0.09796314  0.03018752  0.38463055     0.32700
H51         H  0.03606570  0.11768345  0.40841645     0.38600
H52         H  0.95214598  0.89889266  0.59740508     0.33100
H53         H  0.88587316  0.98700526  0.61831573     0.31900
H54         H  0.88750284  0.06484605  0.57049332     0.33600
H55         H  0.97520371  0.14381157  0.51508914     0.32600
H56         H  0.04906983  0.91932669  0.57979099     0.36600
H57         H  0.08840782  0.99710637  0.57915323     0.29300
H58         H  0.91243166  0.97507775  0.41319682     0.33600
H59         H  0.94724514  0.13512482  0.43452351     0.36400
H60         H  0.89232570  0.94845131  0.60085762     0.29000
H61         H  0.09262916  0.04391085  0.57377369     0.41900
H62         H  0.10142506  0.95099138  0.40561771     0.31900
H63         H  0.03959092  0.87311548  0.48350822     0.39600
H64         H  0.93883864  0.12828858  0.51156798     0.31400
H65         H  0.06445951  0.05558950  0.38729794     0.31500
H66         H  0.92924083  0.01820537  0.40758461     0.31700
Zr67       Zr  0.53606703  0.02998582  0.53657210     2.17500
O68         O  0.54644149  0.07739224  0.57433219    -0.50600
O69         O  0.59569094  0.00891853  0.53483260    -0.73800
O70         O  0.52485732  0.00215278  0.59980921    -0.80600
O71         O  0.55385063  0.11300491  0.45370732    -0.82400
O72         O  0.48548091  0.95047418  0.61103107    -0.78000
O73         O  0.56026597  0.09675445  0.51076614    -0.89600
O74         O  0.60621470  0.95821695  0.50306269    -0.75600
O75         O  0.53258974  0.95994333  0.53760765    -0.85100
O76         O  0.56023275  0.01979790  0.47747050    -0.84800
O77         O  0.47473867  0.01239580  0.55555468    -0.71500
O78         O  0.50089188  0.06702209  0.50016092    -0.83600
Zr79       Zr  0.45981210  0.96781209  0.45945423     2.26400
Zr80       Zr  0.47189862  0.94187870  0.55488119     2.06300
Zr81       Zr  0.52479600  0.05585719  0.44101282     2.10000
Zr82       Zr  0.55560037  0.94983531  0.47836301     1.78800
O83         O  0.50311643  0.11655060  0.41155036    -0.92500
O84         O  0.56580261  0.88385810  0.50880944    -0.40300
O85         O  0.52075372  0.98574671  0.44126928    -0.76900
O86         O  0.49507217  0.92964833  0.49564114    -0.95600
O87         O  0.43646172  0.97799353  0.51856152    -0.88900
O88         O  0.46385424  0.03790508  0.45794444    -0.91700
C89         C  0.61532017  0.98229706  0.52182073     1.02000
C90         C  0.56418127  0.12078390  0.48102404     1.15000
C91         C  0.50531199  0.97427368  0.62087096     1.05700
O92         O  0.49744109  0.87942184  0.57535570    -0.93900
O93         O  0.43371016  0.89086044  0.54516142    -0.89600
O94         O  0.42557416  0.90746365  0.48871474    -0.82800
C95         C  0.42019151  0.88479275  0.51922242     1.12400
O96         O  0.43465837  0.09830939  0.55556454    -0.95900
Zr97       Zr  0.44037564  0.04774968  0.51720948     1.88900
O98         O  0.40092799  0.99056923  0.45771016    -0.72500
O99         O  0.41942722  0.92936780  0.60194830    -0.51800
O100        O  0.39119723  0.03033074  0.56737702    -0.96400
O101        O  0.43206612  0.11497111  0.48800862    -0.53700
O102        O  0.38962370  0.03807413  0.49280687    -0.73000
C103        C  0.38069477  0.01575389  0.47243389     0.99300
O104        O  0.45721436  0.92232636  0.41768040    -0.61800
O105        O  0.58092249  0.06346774  0.39886216    -0.56600
O106        O  0.47639903  0.99089503  0.39558521    -0.93300
O107        O  0.51599295  0.04212003  0.38461810    -0.91800
O108        O  0.60320876  0.96409737  0.42622370    -0.92100
O109        O  0.56047895  0.90136001  0.43814282    -0.90900
C110        C  0.49752557  0.01727238  0.37432282     1.18200
H111        H  0.58407849  0.02959761  0.47001804     0.34100
H112        H  0.49300457  0.90163277  0.49452419     0.45000
H113        H  0.45114115  0.05201886  0.44134294     0.38500
H114        H  0.46578424  0.01801542  0.57924269     0.35000
H115        H  0.59081002  0.87952815  0.49971807     0.26800
H116        H  0.42551089  0.90817415  0.62004052     0.32700
H117        H  0.38134162  0.00497027  0.56373481     0.38600
H118        H  0.61718436  0.98607353  0.43075364     0.33100
H119        H  0.57954390  0.08889783  0.38283999     0.31900
H120        H  0.48261690  0.10803645  0.40330243     0.33600
H121        H  0.41981278  0.11140154  0.46899401     0.32600
H122        H  0.54350870  0.90979895  0.42313683     0.36600
H123        H  0.46479123  0.89636912  0.42860550     0.29300
H124        H  0.56413031  0.06539172  0.58717808     0.33600
H125        H  0.40977428  0.10518306  0.55986942     0.36400
H126        H  0.59823338  0.06918821  0.41260801     0.29000
H127        H  0.43210166  0.91822182  0.41852838     0.41900
H128        H  0.47952926  0.86606778  0.59573945     0.31900
H129        H  0.56424391  0.88714952  0.53384855     0.39600
H130        H  0.45573292  0.12497492  0.47516857     0.31400
H131        H  0.41702300  0.95354065  0.61327915     0.31500
H132        H  0.52478447  0.07723130  0.59280310     0.31700
Zr133      Zr  0.20578495  0.47938469  0.46040806     2.17500
O134        O  0.16709268  0.49784359  0.41952861    -0.50600
O135        O  0.19081456  0.40907570  0.46543689    -0.73800
O136        O  0.23397207  0.47556535  0.39897451    -0.80600
O137        O  0.13247904  0.50719032  0.53342426    -0.82400
O138        O  0.29217718  0.48444356  0.39266246    -0.78000
O139        O  0.14350426  0.48513584  0.48030915    -0.89600
O140        O  0.21620354  0.37489504  0.50753285    -0.75600
O141        O  0.25793175  0.44612971  0.46757257    -0.85100
O142        O  0.19715043  0.45333339  0.52223860    -0.84800
O143        O  0.25105706  0.53038754  0.43996510    -0.71500
O144        O  0.19525076  0.53576935  0.49076177    -0.83600
Zr145      Zr  0.28493381  0.52706353  0.54166725     2.26400
Zr146      Zr  0.30302229  0.49712700  0.44913198     2.06300
Zr147      Zr  0.18750137  0.50919426  0.55270669     2.10000
Zr148      Zr  0.24950791  0.42124028  0.52955022     1.78800
O149        O  0.15533623  0.56460279  0.57463413    -0.92500
O150        O  0.29344695  0.37470763  0.50894665    -0.40300
O151        O  0.23961300  0.47617726  0.56158559    -0.76900
O152        O  0.29579011  0.47044674  0.51121110    -0.95600
O153        O  0.29366463  0.55299766  0.47985189    -0.88900
O154        O  0.23281068  0.56003835  0.53389385    -0.91700
C155        C  0.19664465  0.37666640  0.48493441     1.02000
C156        C  0.12273965  0.49649626  0.50674119     1.15000
C157        C  0.26524264  0.47880076  0.38012855     1.05700
O158        O  0.33988871  0.44205405  0.43407486    -0.93900
O159        O  0.35879369  0.50814475  0.46400355    -0.89600
O160        O  0.34732094  0.51967470  0.52102618    -0.82800
C161        C  0.36842596  0.51418380  0.49222225     1.12400
O162        O  0.20737132  0.61192521  0.42857440    -0.95900
Zr163      Zr  0.24162940  0.58516172  0.47180459     1.88900
O164        O  0.29748420  0.59808656  0.53717384    -0.72500
O165        O  0.33772636  0.54500289  0.40126372    -0.51800
O166        O  0.27938654  0.62007730  0.41757998    -0.96400
O167        O  0.20163401  0.63515458  0.49314204    -0.53700
O168        O  0.27894644  0.63092256  0.48940900    -0.73000
C169        C  0.29506290  0.62956858  0.51482271     0.99300
O170        O  0.32420619  0.51860404  0.58294435    -0.61800
O171        O  0.14907856  0.45936209  0.59516237    -0.56600
O172        O  0.25612645  0.52364413  0.60443468    -0.93300
O173        O  0.19811059  0.51192651  0.61150405    -0.91800
O174        O  0.21338397  0.38109892  0.58200187    -0.92100
O175        O  0.28156112  0.39420172  0.57454636    -0.90900
C176        C  0.22518102  0.51739295  0.62384161     1.18200
H177        H  0.17730373  0.43503849  0.52991378     0.34100
H178        H  0.31658502  0.45732375  0.51572715     0.45000
H179        H  0.22819637  0.58109760  0.54800238     0.38500
H180        H  0.25283735  0.54108552  0.41515787     0.35000
H181        H  0.28292701  0.34802514  0.52002209     0.26800
H182        H  0.35522556  0.52881501  0.38802403     0.32700
H183        H  0.30335177  0.61625299  0.42143198     0.38600
H184        H  0.19058247  0.37760222  0.57577740     0.33100
H185        H  0.16492689  0.44155588  0.60654695     0.31900
H186        H  0.13523825  0.55186218  0.59287074     0.33600
H187        H  0.21089847  0.64421776  0.51232650     0.32600
H188        H  0.28018401  0.41471335  0.59009226     0.36600
H189        H  0.32017356  0.54109780  0.59643424     0.29300
H190        H  0.16566994  0.47444976  0.40770347     0.33600
H191        H  0.21461033  0.64042399  0.42118488     0.36400
H192        H  0.13701495  0.47385815  0.61410024     0.29000
H193        H  0.31569717  0.49441640  0.60052530     0.41900
H194        H  0.34480949  0.42886963  0.45698054     0.31900
H195        H  0.29374630  0.37627166  0.48332725     0.39600
H196        H  0.17994602  0.61981881  0.50562853     0.31400
H197        H  0.32216650  0.55389013  0.38481728     0.31500
H198        H  0.17987222  0.51890506  0.40066538     0.31700
Zr199      Zr  0.70590421  0.48055119  0.45878411     2.17500
O200        O  0.67497880  0.50766864  0.41259287    -0.50600
O201        O  0.68569161  0.41194008  0.46293060    -0.73800
O202        O  0.73573328  0.47273201  0.39895472    -0.80600
O203        O  0.63222393  0.50949960  0.53043500    -0.82400
O204        O  0.79413640  0.47885074  0.39364738    -0.78000
O205        O  0.64438419  0.49100880  0.47580131    -0.89600
O206        O  0.70449819  0.37550950  0.50901624    -0.75600
O207        O  0.75476426  0.44235416  0.46827357    -0.85100
O208        O  0.69309660  0.45511080  0.52105696    -0.84800
O209        O  0.75438416  0.52731973  0.44037886    -0.71500
O210        O  0.69756088  0.53702403  0.48916466    -0.83600
Zr211      Zr  0.78462657  0.51912571  0.54331780     2.26400
Zr212      Zr  0.80342224  0.48889067  0.45148077     2.06300
Zr213      Zr  0.68651589  0.51138398  0.55157101     2.10000
Zr214      Zr  0.74222729  0.41745351  0.53040788     1.78800
O215        O  0.65930242  0.57366745  0.56325751    -0.92500
O216        O  0.78017354  0.36589903  0.50877569    -0.40300
O217        O  0.73558769  0.47303965  0.56159841    -0.76900
O218        O  0.79239963  0.46200897  0.51365414    -0.95600
O219        O  0.79608121  0.54512377  0.48159297    -0.88900
O220        O  0.73542792  0.55725238  0.53429089    -0.91700
C221        C  0.68719642  0.37938199  0.48435515     1.02000
C222        C  0.62322126  0.50138739  0.50240454     1.15000
C223        C  0.76719149  0.47434258  0.38078809     1.05700
O224        O  0.83364239  0.42745481  0.44310992    -0.93900
O225        O  0.85886966  0.49730509  0.46854334    -0.89600
O226        O  0.84703658  0.51582468  0.52316164    -0.82800
C227        C  0.86820826  0.50685772  0.49585804     1.12400
O228        O  0.71441223  0.61628509  0.42977245    -0.95900
Zr229      Zr  0.74676973  0.58232156  0.47214475     1.88900
O230        O  0.80581888  0.58792261  0.53778039    -0.72500
O231        O  0.84415003  0.53084359  0.40377838    -0.51800
O232        O  0.78606327  0.61342001  0.41731477    -0.96400
O233        O  0.70994613  0.63459658  0.49430332    -0.53700
O234        O  0.78635466  0.62333740  0.49158127    -0.73000
C235        C  0.80454729  0.61992766  0.51545509     0.99300
O236        O  0.81371985  0.48645388  0.58933489    -0.61800
O237        O  0.64315655  0.47351605  0.59958263    -0.56600
O238        O  0.75638540  0.52625202  0.60348760    -0.93300
O239        O  0.69842006  0.51332075  0.61078590    -0.91800
O240        O  0.70229903  0.38252853  0.58293724    -0.92100
O241        O  0.76928678  0.38324429  0.57703969    -0.90900
C242        C  0.72553733  0.52003153  0.62293258     1.18200
H243        H  0.67198650  0.43877225  0.52799698     0.34100
H244        H  0.81222978  0.44746618  0.51909828     0.45000
H245        H  0.73244105  0.57837974  0.54839087     0.38500
H246        H  0.75750253  0.53808713  0.41541843     0.35000
H247        H  0.76752584  0.34050389  0.52054707     0.26800
H248        H  0.85658795  0.51228252  0.38866194     0.32700
H249        H  0.80973991  0.60866846  0.42172111     0.38600
H250        H  0.68751486  0.40356422  0.59248151     0.33100
H251        H  0.62211981  0.48981652  0.60153034     0.31900
H252        H  0.63913144  0.56564163  0.58325252     0.33600
H253        H  0.71710185  0.63903910  0.51624573     0.32600
H254        H  0.78220579  0.40453566  0.58392986     0.36600
H255        H  0.79537757  0.47048493  0.60760337     0.29300
H256        H  0.67219454  0.48560719  0.39957235     0.33600
H257        H  0.72403775  0.64400860  0.42334190     0.36400
H258        H  0.63689731  0.45001976  0.58994749     0.29000
H259        H  0.82797394  0.46584154  0.57841019     0.41900
H260        H  0.85532438  0.43606254  0.42523445     0.31900
H261        H  0.77904672  0.36776879  0.48345620     0.39600
H262        H  0.68638134  0.62190326  0.50268909     0.31400
H263        H  0.82947450  0.54630598  0.38905741     0.31500
H264        H  0.69140353  0.52720454  0.39542787     0.31700
Zr265      Zr  0.95905948  0.03500625  0.96313146     2.17500
O266        O  0.93675420  0.08583186  0.92259771    -0.50600
O267        O  0.89801297  0.01347152  0.97872377    -0.73800
O268        O  0.96622250  0.01833268  0.90329119    -0.80600
O269        O  0.94734816  0.10341595  0.03235168    -0.82400
O270        O  0.00265065  0.96694392  0.89751494    -0.78000
O271        O  0.94296370  0.10115338  0.97558015    -0.89600
O272        O  0.88909256  0.96160088  0.02461841    -0.75600
O273        O  0.96196101  0.96423920  0.97447670    -0.85100
O274        O  0.94185369  0.01606682  0.02606591    -0.84800
O275        O  0.01879911  0.02147871  0.93937908    -0.71500
O276        O  0.99930812  0.06886620  0.98753881    -0.83600
Zr277      Zr  0.04506744  0.96371337  0.04047935     2.26400
Zr278      Zr  0.02188196  0.95016395  0.95305689     2.06300
Zr279      Zr  0.98268381  0.04840796  0.05045669     2.10000
Zr280      Zr  0.94536534  0.94543165  0.03737624     1.78800
O281        O  0.01309732  0.10775813  0.05748744    -0.92500
O282        O  0.92647183  0.88781124  0.01548200    -0.40300
O283        O  0.98542088  0.97726906  0.06345267    -0.76900
O284        O  0.00457333  0.92961860  0.01615599    -0.95600
O285        O  0.06227710  0.98291336  0.97762983    -0.88900
O286        O  0.04246571  0.03459376  0.02875336    -0.91700
C287        C  0.87836674  0.98760297  0.00206795     1.02000
C288        C  0.93814069  0.11794420  0.00334854     1.15000
C289        C  0.98293107  0.99322220  0.88515536     1.05700
O290        O  0.99514065  0.88988736  0.94301795    -0.93900
O291        O  0.05872044  0.89564808  0.97012527    -0.89600
O292        O  0.07041774  0.90249597  0.02347252    -0.82800
C293        C  0.07266161  0.88399926  0.99690252     1.12400
O294        O  0.05529502  0.11438596  0.92393862    -0.95900
Zr295      Zr  0.05840513  0.05328996  0.96554940     1.88900
O296        O  0.10546288  0.98732440  0.02687373    -0.72500
O297        O  0.07220618  0.94873668  0.90446824    -0.51800
O298        O  0.09360802  0.04800285  0.90697158    -0.96400
O299        O  0.08365363  0.11147440  0.98136106    -0.53700
O300        O  0.11410927  0.03330423  0.97673711    -0.73000
C301        C  0.12523325  0.00999631  0.00079724     0.99300
O302        O  0.06228816  0.91002694  0.08240317    -0.61800
O303        O  0.93440300  0.05380279  0.10024993    -0.56600
O304        O  0.03418873  0.97712059  0.10184330    -0.93300
O305        O  0.99619761  0.02701798  0.10820895    -0.91800
O306        O  0.90767231  0.94664395  0.09547982    -0.92100
O307        O  0.94534345  0.88383786  0.07918997    -0.90900
C308        C  0.01515955  0.00001704  0.12078540     1.18200
H309        H  0.91885974  0.02482407  0.03528397     0.34100
H310        H  0.00597982  0.90112430  0.02223557     0.45000
H311        H  0.05766793  0.04706764  0.04058395     0.38500
H312        H  0.02531334  0.03093536  0.91407241     0.35000
H313        H  0.90522723  0.87710685  0.03317343     0.26800
H314        H  0.06562804  0.92891466  0.89084775     0.32700
H315        H  0.11604474  0.06184245  0.90574282     0.38600
H316        H  0.91532052  0.97092383  0.10306636     0.33100
H317        H  0.93345581  0.08250980  0.10199360     0.31900
H318        H  0.99603805  0.12021783  0.07474336     0.33600
H319        H  0.09764120  0.10084336  0.99889981     0.32600
H320        H  0.96877698  0.88342479  0.08474702     0.36600
H321        H  0.08082862  0.92177808  0.09160558     0.29300
H322        H  0.91929801  0.07192498  0.91354423     0.33600
H323        H  0.07972098  0.12352806  0.91334077     0.36400
H324        H  0.91310125  0.04801900  0.09202930     0.29000
H325        H  0.04227861  0.90421575  0.10294906     0.41900
H326        H  0.98874926  0.87319233  0.96685076     0.31900
H327        H  0.91781728  0.89900159  0.99399580     0.39600
H328        H  0.06368794  0.12387035  0.99530317     0.34600
H329        H  0.07255457  0.97469570  0.88864653     0.31500
H330        H  0.95628346  0.09365677  0.90186805     0.31700
Zr331      Zr  0.46616931  0.03584926  0.95096305     2.17500
O332        O  0.46628331  0.08920005  0.90087976    -0.50600
O333        O  0.40485833  0.01874908  0.95866756    -0.73800
O334        O  0.47396394  0.01211578  0.89364940    -0.80600
O335        O  0.45305108  0.10897861  0.01616773    -0.82400
O336        O  0.50575866  0.95612792  0.89624321    -0.78000
O337        O  0.44537469  0.10164368  0.96144819    -0.89600
O338        O  0.39050686  0.96501336  0.00250266    -0.75600
O339        O  0.46276164  0.96504765  0.96735918    -0.85100
O340        O  0.44215004  0.02173575  0.01353041    -0.84800
O341        O  0.52509475  0.01474850  0.93530124    -0.71500
O342        O  0.50450955  0.06782137  0.97906682    -0.83600
Zr343      Zr  0.53713752  0.96073290  0.04286367     2.26400
Zr344      Zr  0.52143447  0.94372375  0.95363197     2.06300
Zr345      Zr  0.48113934  0.05180381  0.04165127     2.10000
Zr346      Zr  0.43978722  0.95122760  0.02983299     1.78800
O347        O  0.50454780  0.11322769  0.05338867    -0.92500
O348        O  0.42569767  0.88633435  0.01678551    -0.40300
O349        O  0.47820015  0.98116252  0.05899788    -0.76900
O350        O  0.49791714  0.92810656  0.01619858    -0.95600
O351        O  0.56020131  0.97535238  0.98058812    -0.88900
O352        O  0.53978054  0.03147968  0.02693736    -0.91700
C353        C  0.38316700  0.99208842  0.97854503     1.02000
C354        C  0.44278458  0.12138724  0.98734850     1.15000
C355        C  0.48911021  0.98287676  0.88001826     1.05700
O356        O  0.49270183  0.88118291  0.95135489    -0.93900
O357        O  0.55778131  0.89144945  0.97470054    -0.89600
O358        O  0.56596658  0.90043996  0.02891568    -0.82800
C359        C  0.57054423  0.88155708  0.00246161     1.12400
O360        O  0.56605407  0.10196262  0.91623588    -0.95900
Zr361      Zr  0.56254030  0.04578690  0.96460421     1.88900
O362        O  0.59907178  0.97576379  0.03480692    -0.72500
O363        O  0.57299428  0.93483346  0.90855950    -0.51800
O364        O  0.60895608  0.03792050  0.91390373    -0.96400
O365        O  0.58281998  0.10463005  0.98380181    -0.53700
O366        O  0.61322203  0.02374533  0.98617313    -0.73000
C367        C  0.62121820  0.99896066  0.01130161     0.99300
O368        O  0.52853307  0.90766645  0.09454405    -0.61800
O369        O  0.42715550  0.05535567  0.08522111    -0.56600
O370        O  0.53399459  0.98525885  0.09846602    -0.93300
O371        O  0.49809570  0.03779915  0.09871090    -0.91800
O372        O  0.39176795  0.96531096  0.07675783    -0.92100
O373        O  0.42847712  0.90270894  0.08454960    -0.90900
C374        C  0.51732516  0.01269834  0.11341070     1.18200
H375        H  0.41927519  0.03261026  0.01941094     0.34100
H376        H  0.49751145  0.89968351  0.02397241     0.45000
H377        H  0.55429239  0.04352989  0.03975380     0.38500
H378        H  0.53418438  0.02153367  0.90996779     0.35000
H379        H  0.40222066  0.87898217  0.03179949     0.26800
H380        H  0.56563945  0.91524565  0.89515330     0.32700
H381        H  0.62600751  0.05996287  0.91192593     0.38600
H382        H  0.37063223  0.95381258  0.07168689     0.33100
H383        H  0.42363826  0.02844495  0.09982388     0.31900
H384        H  0.48933167  0.11809401  0.07593632     0.33600
H385        H  0.59792915  0.09466393  0.00042875     0.32600
H386        H  0.45083484  0.88927161  0.08471197     0.36600
H387        H  0.50726733  0.91469877  0.11082211     0.29300
H388        H  0.44869499  0.08110007  0.88838630     0.33600
H389        H  0.58697977  0.11805887  0.91622848     0.36400
H390        H  0.43304900  0.07273519  0.10130180     0.29000
H391        H  0.52095869  0.88379993  0.08627372     0.41900
H392        H  0.49604447  0.87970759  0.92572100     0.31900
H393        H  0.42187086  0.89189327  0.99220680     0.39600
H394        H  0.56190744  0.11394940  0.99901520     0.31400
H395        H  0.57648634  0.96031147  0.89169977     0.31500
H396        H  0.48904549  0.08805852  0.88430977     0.31700
Zr397      Zr  0.20941802  0.53766461  0.96374294     2.17500
O398        O  0.19938887  0.59417036  0.92018961    -0.50600
O399        O  0.14847439  0.51766879  0.97640793    -0.73800
O400        O  0.21129048  0.52040471  0.90447274    -0.80600
O401        O  0.20234626  0.60397688  0.03616095    -0.82400
O402        O  0.24550629  0.46735700  0.89693941    -0.78000
O403        O  0.19052721  0.60090257  0.98202721    -0.89600
O404        O  0.13956102  0.46160240  0.01784889    -0.75600
O405        O  0.21037570  0.46671848  0.97313065    -0.85100
O406        O  0.19153485  0.51649454  0.02655955    -0.84800
O407        O  0.26814185  0.52232814  0.93883113    -0.71500
O408        O  0.25037175  0.56728974  0.99055868    -0.83600
Zr409      Zr  0.29365951  0.45795283  0.03866988     2.26400
Zr410      Zr  0.26947529  0.45114381  0.94998344     2.06300
Zr411      Zr  0.23311282  0.54416475  0.05328788     2.10000
Zr412      Zr  0.19361943  0.44586066  0.03583990     1.78800
O413        O  0.25391366  0.60100105  0.07468929    -0.92500
O414        O  0.17637703  0.38461687  0.01848330    -0.40300
O415        O  0.23476290  0.47314491  0.06354768    -0.76900
O416        O  0.25200489  0.42797799  0.01285595    -0.95600
O417        O  0.31084042  0.47980699  0.97608118    -0.88900
O418        O  0.29176498  0.52897669  0.02919908    -0.91700
C419        C  0.12893357  0.48946703  0.99683546     1.02000
C420        C  0.19011509  0.61854763  0.00890295     1.15000
C421        C  0.22559480  0.49431711  0.88585650     1.05700
O422        O  0.24962545  0.38909524  0.93610568    -0.93900
O423        O  0.30749208  0.39699413  0.96329889    -0.89600
O424        O  0.32272152  0.40096159  0.01570799    -0.82800
C425        C  0.32374597  0.38446960  0.98804699     1.12400
O426        O  0.30156231  0.61013950  0.92508129    -0.95900
Zr427      Zr  0.30847856  0.55040035  0.96658992     1.88900
O428        O  0.35443180  0.47896845  0.02654069    -0.72500
O429        O  0.31922410  0.46018923  0.89962841    -0.51800
O430        O  0.34617035  0.54694136  0.90888481    -0.96400
O431        O  0.33276850  0.60886314  0.98270485    -0.53700
O432        O  0.36349894  0.53085107  0.98063514    -0.73000
C433        C  0.37413680  0.50502769  0.00342842     0.99300
O434        O  0.29180406  0.40019109  0.08544955    -0.61800
O435        O  0.18104684  0.53554661  0.10106667    -0.56600
O436        O  0.29689406  0.47549475  0.09629534    -0.93300
O437        O  0.25800097  0.52418758  0.10549105    -0.91800
O438        O  0.15205362  0.45230085  0.09065773    -0.92100
O439        O  0.18946820  0.38881564  0.08324637    -0.90900
C440        C  0.28021159  0.49955994  0.11567147     1.18200
H441        H  0.16861218  0.52556000  0.03572907     0.34100
H442        H  0.25305609  0.39934275  0.01773230     0.45000
H443        H  0.30752508  0.54035236  0.04110217     0.38500
H444        H  0.27410635  0.53243211  0.91362790     0.35000
H445        H  0.15155798  0.37993197  0.03062158     0.26800
H446        H  0.31742870  0.43719606  0.88740399     0.32700
H447        H  0.36883120  0.55874590  0.90989695     0.38600
H448        H  0.13537799  0.47230751  0.08366223     0.33100
H449        H  0.18654596  0.51403904  0.11923918     0.31900
H450        H  0.23387016  0.60793448  0.09259055     0.33600
H451        H  0.34507392  0.59842292  0.00177106     0.32600
H452        H  0.21391468  0.38326921  0.08462864     0.36600
H453        H  0.27272187  0.40507228  0.10527297     0.29300
H454        H  0.17964672  0.58588359  0.91063678     0.33600
H455        H  0.32538578  0.62154748  0.91488227     0.36400
H456        H  0.18059742  0.55990790  0.11199125     0.29000
H457        H  0.28251889  0.37778726  0.07647202     0.41900
H458        H  0.22484537  0.39307180  0.93527098     0.31900
H459        H  0.17592863  0.39207379  0.99298115     0.39600
H460        H  0.31224011  0.62196288  0.99496716     0.31400
H461        H  0.31390560  0.48350941  0.88306885     0.31500
H462        H  0.21996317  0.59631441  0.90017509     0.31700
Zr463      Zr  0.71269512  0.54121053  0.96186170     2.17500
O464        O  0.70522025  0.59957249  0.91896257    -0.50600
O465        O  0.65160078  0.52335246  0.97119628    -0.73800
O466        O  0.71687039  0.52622921  0.90185510    -0.80600
O467        O  0.70492973  0.60733812  0.03471967    -0.82400
O468        O  0.74831844  0.47070966  0.89614102    -0.78000
O469        O  0.69341872  0.60398999  0.98060461    -0.89600
O470        O  0.63920062  0.46840226  0.01379577    -0.75600
O471        O  0.71118226  0.47013086  0.97102257    -0.85100
O472        O  0.69225010  0.52018507  0.02426328    -0.84800
O473        O  0.77138332  0.52346661  0.93950601    -0.71500
O474        O  0.75289267  0.56927032  0.99023286    -0.83600
Zr475      Zr  0.78967654  0.45748918  0.04094321     2.26400
Zr476      Zr  0.77005721  0.45184214  0.95036581     2.06300
Zr477      Zr  0.73306803  0.54659099  0.05274279     2.10000
Zr478      Zr  0.69155482  0.44940676  0.03350333     1.78800
O479        O  0.76086401  0.60227193  0.06951084    -0.92500
O480        O  0.67133369  0.38976269  0.01573164    -0.40300
O481        O  0.73131957  0.47546893  0.06326689    -0.76900
O482        O  0.74933195  0.42902503  0.01285525    -0.95600
O483        O  0.81040672  0.47895082  0.97875853    -0.88900
O484        O  0.79148096  0.52846719  0.03187048    -0.91700
C485        C  0.63057390  0.49649168  0.99159660     1.02000
C486        C  0.69286805  0.62171656  0.00742590     1.15000
C487        C  0.73038708  0.49926929  0.88399300     1.05700
O488        O  0.74805290  0.39206234  0.93439334    -0.93900
O489        O  0.80325215  0.39362352  0.96752844    -0.89600
O490        O  0.81587620  0.39858113  0.02082097    -0.82800
C491        C  0.81723323  0.38073881  0.99406024     1.12400
O492        O  0.81408363  0.60832208  0.92349250    -0.95900
Zr493      Zr  0.81085249  0.54973565  0.96951305     1.88900
O494        O  0.85119982  0.47319119  0.03131106    -0.72500
O495        O  0.82146135  0.45688965  0.90198750    -0.51800
O496        O  0.85375478  0.53998452  0.91670632    -0.96400
O497        O  0.83048503  0.61019703  0.98663280    -0.53700
O498        O  0.86253180  0.52967521  0.99026122    -0.73000
C499        C  0.87180600  0.50070806  0.01124349     0.99300
O500        O  0.78501803  0.40100586  0.08922421    -0.61800
O501        O  0.67989704  0.54867838  0.09783148    -0.56600
O502        O  0.78793077  0.47243257  0.10006745    -0.93300
O503        O  0.75085370  0.52296192  0.10847947    -0.91800
O504        O  0.64973695  0.45804958  0.08738165    -0.92100
O505        O  0.68684765  0.39064025  0.07937059    -0.90900
C506        C  0.77119651  0.49637962  0.11943268     1.18200
H507        H  0.66942763  0.53010984  0.03257862     0.34100
H508        H  0.74914098  0.40031676  0.01810411     0.45000
H509        H  0.80686125  0.53855958  0.04494211     0.38500
H510        H  0.77868533  0.53360387  0.91438334     0.35000
H511        H  0.64616300  0.38707049  0.02689524     0.26800
H512        H  0.81807364  0.43510065  0.88890854     0.32700
H513        H  0.87390154  0.55757991  0.91620824     0.38600
H514        H  0.62891320  0.44190664  0.08715157     0.33100
H515        H  0.67790806  0.52224940  0.11320919     0.31900
H516        H  0.74243523  0.61245862  0.08714706     0.33600
H517        H  0.84184691  0.60090757  0.00669374     0.32600
H518        H  0.70035972  0.39797616  0.09622959     0.36600
H519        H  0.77293864  0.37935365  0.08183555     0.29300
H520        H  0.68597690  0.59238397  0.90816424     0.33600
H521        H  0.83884275  0.61749574  0.91677813     0.36400
H522        H  0.68559445  0.56747347  0.11283692     0.29000
H523        H  0.80907462  0.39195429  0.08861742     0.41900
H524        H  0.73327328  0.37804312  0.95682037     0.31900
H525        H  0.67214905  0.39734766  0.98996346     0.39600
H526        H  0.80879303  0.62234071  0.99763567     0.31400
H527        H  0.81869640  0.48158637  0.88560089     0.31500
H528        H  0.72640912  0.60182337  0.89965573     0.31700
C529        C  0.47126039  0.52150431  0.96950258     0.13400
C530        C  0.48369435  0.50683667  0.00000408     0.00300
C531        C  0.46022843  0.49145516  0.03181198     0.15300
C532        C  0.42453403  0.49019601  0.03297619     0.24700
C533        C  0.41182660  0.50535440  0.00247083    -0.41600
C534        C  0.43565514  0.52076230  0.97063044     0.31800
C535        C  0.52133804  0.50452525  0.99763817     0.00400
F536        F  0.47199311  0.47749984  0.06166723    -0.13900
F537        F  0.42473960  0.53340988  0.94004176    -0.14400
C538        C  0.54261892  0.53926622  0.98882594     0.15300
C539        C  0.57851340  0.53658712  0.98555010     0.24700
C540        C  0.59346203  0.49907679  0.99111779    -0.41500
C541        C  0.57201317  0.46434234  0.99970915     0.31700
C542        C  0.53620703  0.46711240  0.00285830     0.13400
F543        F  0.52850713  0.57574732  0.98438206    -0.13900
F544        F  0.58567270  0.42769067  0.00506565    -0.14400
F545        F  0.59836411  0.57069447  0.97875807    -0.16700
F546        F  0.51597937  0.43322351  0.01066039    -0.15300
F547        F  0.49377953  0.53504150  0.93820206    -0.15300
F548        F  0.40256229  0.47410888  0.06389123    -0.16700
C549        C  0.96879445  0.51101209  0.97757705     0.13400
C550        C  0.98096597  0.49389836  0.00766852     0.00300
C551        C  0.95709589  0.47857930  0.03931364     0.15300
C552        C  0.92132617  0.48059005  0.04078353     0.24700
C553        C  0.90919266  0.49844699  0.01071239    -0.41600
C554        C  0.93332165  0.51350386  0.97909340     0.31800
C555        C  0.01868776  0.49249926  0.00554984     0.00400
F556        F  0.96842796  0.46255273  0.06892312    -0.13900
F557        F  0.92270151  0.52970810  0.94911758    -0.14400
C558        C  0.03925623  0.52774384  0.99435482     0.15300
C559        C  0.07531050  0.52647647  0.98958952     0.24700
C560        C  0.09130942  0.49004084  0.99764553    -0.41500
C561        C  0.07052190  0.45474216  0.00919768     0.31700
C562        C  0.03451241  0.45596026  0.01267997     0.13400
F563        F  0.02427458  0.56357773  0.98857787    -0.13900
F564        F  0.08502178  0.41893791  0.01668377    -0.14400
F565        F  0.09431860  0.56118552  0.97823513    -0.16700
F566        F  0.01515672  0.42139627  0.02239718    -0.15300
F567        F  0.99137579  0.52481375  0.94637797    -0.15300
F568        F  0.89868735  0.46603771  0.07172953    -0.16700
C569        C  0.39882054  0.21465015  0.01386631     0.13400
C570        C  0.39911688  0.23831268  0.98081344     0.00300
C571        C  0.41326926  0.22310865  0.94948641     0.15300
C572        C  0.42711338  0.18493567  0.95128048     0.24700
C573        C  0.42706844  0.16129833  0.98452259    -0.41600
C574        C  0.41259868  0.17673928  0.01576187     0.31800
C575        C  0.38246325  0.27760130  0.97958176     0.00400
F576        F  0.41395897  0.24539567  0.91712602    -0.13900
F577        F  0.41091176  0.15480473  0.04847766    -0.14400
C578        C  0.39218978  0.30644703  0.99809372     0.15300
C579        C  0.37351345  0.34141900  0.00048385     0.24700
C580        C  0.34469704  0.34825748  0.98438109    -0.41500
C581        C  0.33596647  0.31991579  0.96467997     0.31700
C582        C  0.35464036  0.28505118  0.96236214     0.13400
F583        F  0.41975135  0.30063996  0.01401662    -0.13900
F584        F  0.30844554  0.32502908  0.94867396    -0.14400
F585        F  0.38396909  0.36879261  0.01815534    -0.16700
F586        F  0.34442439  0.25760570  0.94461098    -0.15300
F587        F  0.38399464  0.22772747  0.04456985    -0.15300
F588        F  0.44120280  0.17162747  0.92050621    -0.16700
C589        C  0.67224267  0.72660866  0.02546981     0.13400
C590        C  0.64686019  0.73673343  0.00543652     0.00300
C591        C  0.63693737  0.70924111  0.98588741     0.15300
C592        C  0.65169759  0.67184550  0.98678756     0.24700
C593        C  0.67720004  0.66141345  0.00679946    -0.41600
C594        C  0.68739774  0.68930343  0.02612411     0.31800
C595        C  0.62997347  0.77555990  0.00534806     0.00400
F596        F  0.61234655  0.71835498  0.96639835    -0.13900
F597        F  0.71253654  0.68093236  0.04504940    -0.14400
C598        C  0.63210798  0.80188368  0.97323675     0.15300
C599        C  0.61340570  0.83685166  0.97250445     0.24700
C600        C  0.59210830  0.84597164  0.00389159    -0.41500
C601        C  0.59158493  0.82067747  0.03639692     0.31700
C602        C  0.61027722  0.78562726  0.03706103     0.13400
F603        F  0.65243323  0.79368920  0.94258406    -0.13900
F604        F  0.57216368  0.82915592  0.06737587    -0.14400
F605        F  0.61673494  0.86226953  0.94122192    -0.16700
F606        F  0.60818560  0.76081473  0.06849500    -0.15300
F607        F  0.68284082  0.75322474  0.04379122    -0.15300
F608        F  0.64025115  0.64547715  0.96878757    -0.16700
C609        C  0.71914853  0.01464223  0.98250180     0.13400
C610        C  0.73050954  0.99332829  0.01155631     0.00300
C611        C  0.70596118  0.97350381  0.04083307     0.15300
C612        C  0.67032522  0.97540318  0.04117314     0.24700
C613        C  0.65875637  0.99707242  0.01204267    -0.41600
C614        C  0.68381517  0.01669636  0.98267549     0.31800
C615        C  0.76814628  0.99164891  0.01065248     0.00400
F616        F  0.71650354  0.95272621  0.06928420    -0.13900
F617        F  0.67450681  0.03760700  0.95354313    -0.14400
C618        C  0.78811063  0.02704379  0.00609547     0.15300
C619        C  0.82414718  0.02572967  0.00263502     0.24700
C620        C  0.84063665  0.98893769  0.00419823    -0.41500
C621        C  0.82058145  0.95352548  0.00939885     0.31700
C622        C  0.78460958  0.95492117  0.01216696     0.13400
F623        F  0.77261975  0.06285500  0.00512420    -0.13900
F624        F  0.83598470  0.91768700  0.01073949    -0.14400
F625        F  0.84280447  0.06029245  0.99880898    -0.16700
F626        F  0.76598282  0.92056830  0.01507652    -0.15300
F627        F  0.74246810  0.03286489  0.95338260    -0.15300
F628        F  0.64732199  0.95643781  0.07016402    -0.16700
C629        C  0.21413962  0.98427489  0.01985035     0.13400
C630        C  0.23615302  0.00174169  0.98775549     0.00300
C631        C  0.22188900  0.02253521  0.96046211     0.15300
C632        C  0.18600267  0.02584453  0.96496333     0.24700
C633        C  0.16347840  0.00832588  0.99713293    -0.41600
C634        C  0.17807404  0.98756684  0.02460960     0.31800
C635        C  0.27415209  0.99903827  0.98277212     0.00400
F636        F  0.24281324  0.03900936  0.92900425    -0.13900
F637        F  0.15764688  0.97053935  0.05615004    -0.14400
C638        C  0.28969524  0.96178795  0.98426769     0.15300
C639        C  0.32567782  0.95936819  0.98100620     0.24700
C640        C  0.34651031  0.99429523  0.97570976    -0.41500
C641        C  0.33099546  0.03163480  0.97231413     0.31700
C642        C  0.29501286  0.03393418  0.97633971     0.13400
F643        F  0.26994456  0.92786682  0.98904709    -0.13900
F644        F  0.35037452  0.06586751  0.96730677    -0.14400
F645        F  0.34015222  0.92298601  0.98314025    -0.16700
F646        F  0.28031798  0.07018223  0.97548553    -0.15300
F647        F  0.22765241  0.96449918  0.04677393    -0.15300
F648        F  0.17355783  0.04546183  0.93723510    -0.16700
C649        C  0.91088837  0.22177413  0.96998453     0.13400
C650        C  0.88663506  0.22983337  0.99991499     0.00300
C651        C  0.87915838  0.20084320  0.03076971     0.15300
C652        C  0.89602297  0.16449542  0.03182049     0.24700
C653        C  0.92059728  0.15650922  0.00200592    -0.41600
C654        C  0.92780134  0.18544056  0.97099129     0.31800
C655        C  0.86880960  0.26829948  0.99859181     0.00400
F656        F  0.85478097  0.20729203  0.05951696    -0.13900
F657        F  0.95178377  0.17894170  0.94194941    -0.14400
C658        C  0.84517022  0.27728912  0.97630868     0.15300
C659        C  0.82860967  0.31385385  0.97443745     0.24700
C660        C  0.83568900  0.34241328  0.99466114    -0.41500
C661        C  0.85997575  0.33338980  0.01658951     0.31700
C662        C  0.87608379  0.29658682  0.01873010     0.13400
F663        F  0.83788541  0.25032733  0.95655975    -0.13900
F664        F  0.86895808  0.36056553  0.03532636    -0.14400
F665        F  0.80527689  0.32089160  0.95321737    -0.16700
F666        F  0.89953583  0.28898895  0.03978662    -0.15300
F667        F  0.91834891  0.24933938  0.93985696    -0.15300
F668        F  0.88744995  0.13648382  0.06156885    -0.16700
C669        C  0.13616095  0.80358332  0.01826022     0.13400
C670        C  0.12569687  0.77245080  0.00281360     0.00300
C671        C  0.09837448  0.77845931  0.98461800     0.15300
C672        C  0.08159025  0.81488432  0.98212076     0.24700
C673        C  0.09174621  0.84610945  0.99788244    -0.41600
C674        C  0.11952242  0.84013696  0.01568175     0.31800
C675        C  0.14366179  0.73393633  0.00493578     0.00400
F676        F  0.08743457  0.74863365  0.96987281    -0.13900
F677        F  0.13124773  0.87002823  0.02980045    -0.14400
C678        C  0.14235581  0.70933302  0.03788432     0.15300
C679        C  0.15772454  0.67196432  0.03941095     0.24700
C680        C  0.17490881  0.65869751  0.00794487    -0.41500
C681        C  0.17760495  0.68438335  0.97521343     0.31700
C682        C  0.16201009  0.72147127  0.97374763     0.13400
F683        F  0.12557728  0.72117981  0.06852965    -0.13900
F684        F  0.19626673  0.67412176  0.94462400    -0.14400
F685        F  0.15499943  0.64842303  0.07157637    -0.16700
F686        F  0.16540403  0.74568951  0.94183163    -0.15300
F687        F  0.16301357  0.79879117  0.03525777    -0.15300
F688        F  0.05473267  0.81913445  0.96510096    -0.16700
C689        C  0.69430626  0.49285944  0.72396010     0.13400
C690        C  0.72038977  0.51128284  0.73603913     0.00300
C691        C  0.74689321  0.53419109  0.71105513     0.15300
C692        C  0.74778768  0.53808894  0.67459347     0.24700
C693        C  0.72199090  0.51923624  0.66204149    -0.41600
C694        C  0.69485931  0.49704122  0.68736325     0.31800
C695        C  0.72013090  0.50721250  0.77463524     0.00400
F696        F  0.77248454  0.55222295  0.72200792    -0.13900
F697        F  0.66941489  0.47831840  0.67680971    -0.14400
C698        C  0.72678594  0.47056399  0.79408295     0.15300
C699        C  0.72978091  0.46783507  0.82960162     0.24700
C700        C  0.72554632  0.50165566  0.84670336    -0.41500
C701        C  0.71751398  0.53802043  0.82731982     0.31700
C702        C  0.71508400  0.54071321  0.79169814     0.13400
F703        F  0.73132130  0.43755767  0.77837617    -0.13900
F704        F  0.71304989  0.57150397  0.84230654    -0.14400
F705        F  0.73681205  0.43195343  0.84718737    -0.16700
F706        F  0.70795709  0.57628373  0.77364336    -0.15300
F707        F  0.66823885  0.47086373  0.74770167    -0.15300
F708        F  0.77410479  0.56048731  0.65157583    -0.16700
C709        C  0.80415345  0.49422079  0.28088979     0.13400
C710        C  0.77789662  0.47716510  0.26814985     0.00300
C711        C  0.74918983  0.45740107  0.29235393     0.15300
C712        C  0.74630357  0.45523388  0.32895922     0.24700
C713        C  0.77224330  0.47285705  0.34212425    -0.41600
C714        C  0.80140993  0.49215654  0.31756247     0.31800
C715        C  0.77859485  0.48294289  0.22967627     0.00400
F716        F  0.72325191  0.44143271  0.28038210    -0.13900
F717        F  0.82627950  0.51109503  0.32879704    -0.14400
C718        C  0.79115506  0.45346653  0.20939018     0.15300
C719        C  0.78986982  0.45832798  0.17333980     0.24700
C720        C  0.77505287  0.49248613  0.15709942    -0.41500
C721        C  0.76282614  0.52214394  0.17782373     0.31700
C722        C  0.76472769  0.51735335  0.21365412     0.13400
F723        F  0.80406004  0.41959009  0.22470655    -0.13900
F724        F  0.74891963  0.55590923  0.16362944    -0.14400
F725        F  0.80241968  0.42899632  0.15475298    -0.16700
F726        F  0.75222337  0.54599318  0.23311168    -0.15300
F727        F  0.83183955  0.51406429  0.25772821    -0.15300
F728        F  0.71768121  0.43651718  0.35144578    -0.16700
C729        C  0.19147359  0.48640687  0.72398208     0.13400
C730        C  0.21464926  0.50750308  0.73780492     0.00300
C731        C  0.24038869  0.53289449  0.71411933     0.15300
C732        C  0.24339682  0.53676964  0.67724521     0.24700
C733        C  0.22066510  0.51518852  0.66312057    -0.41600
C734        C  0.19437961  0.49024689  0.68703268     0.31800
C735        C  0.21335345  0.50222693  0.77672335     0.00400
F736        F  0.26319773  0.55338850  0.72682621    -0.13900
F737        F  0.17217889  0.46846543  0.67467775    -0.14400
C738        C  0.22571413  0.46744797  0.79404977     0.15300
C739        C  0.22923801  0.46448854  0.82946482     0.24700
C740        C  0.21961805  0.49608675  0.84881541    -0.41500
C741        C  0.20584880  0.53031038  0.83149570     0.31700
C742        C  0.20320456  0.53345804  0.79583550     0.13400
F743        F  0.23601662  0.43699359  0.77601604    -0.13900
F744        F  0.19624792  0.56172817  0.84839980    -0.14400
F745        F  0.24285597  0.43089210  0.84436044    -0.16700
F746        F  0.19155664  0.56762915  0.77959033    -0.15300
F747        F  0.16608055  0.46198459  0.74625587    -0.15300
F748        F  0.26838713  0.56206363  0.65539723    -0.16700
C749        C  0.30861258  0.48525765  0.28170253     0.13400
C750        C  0.27968258  0.48373175  0.26616002     0.00300
C751        C  0.24622949  0.47875615  0.28818821     0.15300
C752        C  0.24155975  0.47587913  0.32509645     0.24700
C753        C  0.27042862  0.47807051  0.34106844    -0.41600
C754        C  0.30412894  0.48262078  0.31867941     0.31800
C755        C  0.28382250  0.48944598  0.22689108     0.00400
F756        F  0.21782659  0.47726180  0.27377350    -0.13900
F757        F  0.33288600  0.48581905  0.33222278    -0.14400
C758        C  0.29905242  0.46036810  0.20719973     0.15300
C759        C  0.29979412  0.46443904  0.17058502     0.24700
C760        C  0.28520298  0.49784143  0.15294389    -0.41500
C761        C  0.27210060  0.52808989  0.17264564     0.31700
C762        C  0.27095046  0.52358053  0.20917664     0.13400
F763        F  0.31169526  0.42708517  0.22381005    -0.13900
F764        F  0.25984216  0.56206618  0.15676405    -0.14400
F765        F  0.31349811  0.43481212  0.15293800    -0.16700
F766        F  0.25662879  0.55243372  0.22752564    -0.15300
F767        F  0.34119427  0.49095435  0.26091314    -0.15300
F768        F  0.20848748  0.47220695  0.34484149    -0.16700
C769        C  0.46719146  0.52146014  0.46013791     0.13400
C770        C  0.47823250  0.51196721  0.49244559     0.00300
C771        C  0.45308893  0.50311279  0.52433000     0.15300
C772        C  0.41765162  0.50427357  0.52421149     0.24700
C773        C  0.40630332  0.51381440  0.49201674    -0.41600
C774        C  0.43157050  0.52220416  0.45988463     0.31800
C775        C  0.51577137  0.51082905  0.49347853     0.00400
F776        F  0.46289720  0.49237984  0.55579548    -0.13900
F777        F  0.42190919  0.53202536  0.42824460    -0.14400
C778        C  0.52884773  0.53237205  0.51602499     0.15300
C779        C  0.56339640  0.52867395  0.51969284     0.24700
C780        C  0.58604310  0.50430208  0.49992012    -0.41500
C781        C  0.57301839  0.48346470  0.47665022     0.31700
C782        C  0.53820616  0.48636068  0.47382314     0.13400
F783        F  0.50806491  0.55726415  0.53448046    -0.13900
F784        F  0.59367874  0.45932373  0.45716616    -0.14400
F785        F  0.57471185  0.54960194  0.54214242    -0.16700
F786        F  0.52615398  0.46410973  0.45275196    -0.15300
F787        F  0.49084839  0.53085617  0.42888557    -0.15300
F788        F  0.39452780  0.49489543  0.55578394    -0.16700
C789        C  0.96706607  0.51228383  0.46652868     0.13400
C790        C  0.97709598  0.50405739  0.49939611     0.00300
C791        C  0.95129738  0.49760319  0.53090848     0.15300
C792        C  0.91608977  0.49888227  0.52966212     0.24700
C793        C  0.90578221  0.50661176  0.49675814    -0.41600
C794        C  0.93173636  0.51361020  0.46517537     0.31800
C795        C  0.01440438  0.50226829  0.50102896     0.00400
F796        F  0.96019716  0.48926326  0.56303953    -0.13900
F797        F  0.92301015  0.52282825  0.43303525    -0.14400
C798        C  0.02844789  0.52757807  0.51993468     0.15300
C799        C  0.06341665  0.52529460  0.52240076     0.24700
C800        C  0.08515585  0.49772308  0.50577614    -0.41500
C801        C  0.07087822  0.47223801  0.48693866     0.31700
C802        C  0.03594346  0.47472378  0.48439957     0.13400
F803        F  0.00842558  0.55532784  0.53524816    -0.13900
F804        F  0.09050125  0.44422845  0.47155988    -0.14400
F805        F  0.07617590  0.55093942  0.54018352    -0.16700
F806        F  0.02299573  0.44976696  0.46610140    -0.15300
F807        F  0.99156630  0.51992942  0.43575426    -0.15300
F808        F  0.89215244  0.49155967  0.56084592    -0.16700
C809        C  0.53249126  0.97404041  0.70854429     0.13400
C810        C  0.49994530  0.96964917  0.73248922     0.00300
C811        C  0.46970933  0.96474256  0.71983795     0.15300
C812        C  0.47170476  0.96544843  0.68358186     0.24700
C813        C  0.50409062  0.97064372  0.65934703    -0.41600
C814        C  0.53456807  0.97460084  0.67213222     0.31800
C815        C  0.49689171  0.97289086  0.77031698     0.00400
F816        F  0.43802790  0.96106392  0.74250302    -0.13900
F817        F  0.56622501  0.97910263  0.64938997    -0.14400
C818        C  0.50119943  0.01021799  0.78003574     0.15300
C819        C  0.49683078  0.01392486  0.81593409     0.24700
C820        C  0.48884499  0.98010947  0.84261770    -0.41500
C821        C  0.48429162  0.94276133  0.83274568     0.31700
C822        C  0.48789831  0.93928292  0.79688850     0.13400
F823        F  0.50977250  0.04304734  0.75463029    -0.13900
F824        F  0.47642011  0.90960136  0.85788049    -0.14400
F825        F  0.50213181  0.05020251  0.82445548    -0.16700
F826        F  0.48327381  0.90300838  0.78799796    -0.15300
F827        F  0.56211050  0.97816673  0.72042947    -0.15300
F828        F  0.44171205  0.96354265  0.67189240    -0.16700
C829        C  0.51377452  0.05201101  0.19969665     0.13400
C830        C  0.51675633  0.01680184  0.22306003     0.00300
C831        C  0.52204489  0.98074893  0.20986940     0.15300
C832        C  0.52351798  0.97969045  0.17396966     0.24700
C833        C  0.51940763  0.01471235  0.15056658    -0.41600
C834        C  0.51503652  0.05102954  0.16375997     0.31800
C835        C  0.51204044  0.01723332  0.26156513     0.00400
F836        F  0.52496739  0.94630119  0.23201146    -0.13900
F837        F  0.51165097  0.08558922  0.14201185    -0.14400
C838        C  0.48524118  0.99384263  0.28563628     0.15300
C839        C  0.48023355  0.99411764  0.32208442     0.24700
C840        C  0.50175125  0.01835823  0.33533050    -0.41500
C841        C  0.52847536  0.04224380  0.31080313     0.31700
C842        C  0.53366674  0.04135644  0.27436772     0.13400
F843        F  0.46357328  0.97086363  0.27373420    -0.13900
F844        F  0.55028971  0.06588276  0.32185858    -0.14400
F845        F  0.45428154  0.97037557  0.34421160    -0.16700
F846        F  0.56040655  0.06337296  0.25161505    -0.15300
F847        F  0.50801102  0.08706637  0.21206883    -0.15300
F848        F  0.52726533  0.94394747  0.16263253    -0.16700
C849        C  0.38691956  0.77737467  0.54552677     0.13400
C850        C  0.36044157  0.77719346  0.52638955     0.00300
C851        C  0.35137078  0.81324478  0.50793513     0.15300
C852        C  0.37003172  0.84852448  0.50657572     0.24700
C853        C  0.39774250  0.84854651  0.52422626    -0.41600
C854        C  0.40507668  0.81288589  0.54491844     0.31800
C855        C  0.34362209  0.73926148  0.52382903     0.00400
F856        F  0.32459036  0.81411208  0.49088481    -0.13900
F857        F  0.43099563  0.81190502  0.56310516    -0.14400
C858        C  0.32491385  0.71458599  0.55441019     0.15300
C859        C  0.30955772  0.67846343  0.55166288     0.24700
C860        C  0.31213143  0.66692895  0.51818565    -0.41500
C861        C  0.33073702  0.69182573  0.48758857     0.31700
C862        C  0.34648088  0.72755051  0.49042600     0.13400
F863        F  0.32078843  0.72602283  0.58677519    -0.13900
F864        F  0.33449977  0.68102915  0.45498531    -0.14400
F865        F  0.29124417  0.65538256  0.58155370    -0.16700
F866        F  0.36504410  0.75051164  0.46056197    -0.15300
F867        F  0.39633257  0.74284562  0.56339413    -0.15300
F868        F  0.36090574  0.88270364  0.48804684    -0.16700
C869        C  0.58837074  0.23177353  0.45731075     0.13400
C870        C  0.61404220  0.23472636  0.47707533     0.00300
C871        C  0.62406198  0.19985322  0.49666881     0.15300
C872        C  0.60820810  0.16299995  0.49735597     0.24700
C873        C  0.58188483  0.15996871  0.47843411    -0.41600
C874        C  0.57245805  0.19469366  0.45790749     0.31800
C875        C  0.63027384  0.27384074  0.47811561     0.00400
F876        F  0.64965413  0.20139694  0.51496409    -0.13900
F877        F  0.54702689  0.19303849  0.43942718    -0.14400
C878        C  0.62992261  0.28570510  0.51108866     0.15300
C879        C  0.64826090  0.32012804  0.51285328     0.24700
C880        C  0.66680976  0.34399770  0.48163429    -0.41500
C881        C  0.66591089  0.33329598  0.44848426     0.31700
C882        C  0.64795684  0.29832089  0.44673947     0.13400
F883        F  0.61186263  0.26373175  0.54175527    -0.13900
F884        F  0.68375966  0.35564457  0.41793028    -0.14400
F885        F  0.64759133  0.33039159  0.54521942    -0.16700
F886        F  0.64910397  0.28751262  0.41452080    -0.15300
F887        F  0.57793818  0.26492842  0.43833012    -0.15300
F888        F  0.61919146  0.13001840  0.51607460    -0.16700
C889        C  0.95914346  0.02851049  0.79552434     0.13400
C890        C  0.98001052  0.00478206  0.77375892     0.00300
C891        C  0.00055214  0.97601167  0.78880296     0.15300
C892        C  0.00065637  0.97125418  0.82506409     0.24700
C893        C  0.98052174  0.99582624  0.84712215    -0.41600
C894        C  0.95938431  0.02421400  0.83175955     0.31800
C895        C  0.98073910  0.01017117  0.73521734     0.00400
F896        F  0.02052255  0.95231855  0.76824667    -0.13900
F897        F  0.93902103  0.04825690  0.85151845    -0.14400
C898        C  0.01168831  0.02267029  0.71038688     0.15300
C899        C  0.01294035  0.02661332  0.67390947     0.24700
C900        C  0.98322892  0.01753583  0.66136556    -0.41500
C901        C  0.95196553  0.00550877  0.68665816     0.31700
C902        C  0.95085058  0.00190577  0.72312973     0.13400
F903        F  0.04088941  0.03097730  0.72155156    -0.13900
F904        F  0.92250267  0.99616699  0.67643110    -0.14400
F905        F  0.04345711  0.03922010  0.65106165    -0.16700
F906        F  0.92084571  0.98884764  0.74675922    -0.15300
F907        F  0.93916930  0.05667853  0.78144310    -0.15300
F908        F  0.02080537  0.94266895  0.83824212    -0.16700
C909        C  0.98425974  0.94908295  0.29878758     0.13400
C910        C  0.00882533  0.97373171  0.27282996     0.00300
C911        C  0.03397295  0.99528718  0.28337238     0.15300
C912        C  0.03425469  0.99320890  0.31934020     0.24700
C913        C  0.00922559  0.96935122  0.34575105    -0.41600
C914        C  0.98444179  0.94686983  0.33500939     0.31800
C915        C  0.00872615  0.97783425  0.23451404     0.00400
F916        F  0.05776637  0.01943030  0.25862038    -0.13900
F917        F  0.96051422  0.92263515  0.35951546    -0.14400
C918        C  0.98340688  0.00023535  0.22042795     0.15300
C919        C  0.98585540  0.00825258  0.18356528     0.24700
C920        C  0.01370997  0.99367894  0.15994134    -0.41500
C921        C  0.03909745  0.97130937  0.17451434     0.31700
C922        C  0.03650232  0.96347690  0.21135462     0.13400
F923        F  0.95689938  0.01548468  0.24235517    -0.13900
F924        F  0.06707220  0.95781214  0.15319337    -0.14400
F925        F  0.96078395  0.03024773  0.17122126    -0.16700
F926        F  0.06157019  0.94238938  0.22458257    -0.15300
F927        F  0.96032547  0.92702968  0.28904137    -0.15300
F928        F  0.05810649  0.01617993  0.32821850    -0.16700
C929        C  0.70615342  0.01392123  0.52667410     0.13400
C930        C  0.72242564  0.97718165  0.53072429     0.00300
C931        C  0.70280990  0.94179854  0.53406184     0.15300
C932        C  0.66750274  0.94325579  0.53262423     0.24700
C933        C  0.65139130  0.98018472  0.52750251    -0.41600
C934        C  0.67097736  0.01545929  0.52505835     0.31800
C935        C  0.76034027  0.97632578  0.52922498     0.00400
F936        F  0.71801239  0.90592573  0.53821696    -0.13900
F937        F  0.65669317  0.05160500  0.51881476    -0.14400
C938        C  0.77423791  0.99011655  0.55550227     0.15300
C939        C  0.81028915  0.99181634  0.55282703     0.24700
C940        C  0.83337034  0.98053839  0.52322129    -0.41500
C941        C  0.81901603  0.96638719  0.49699073     0.31700
C942        C  0.78293768  0.96409703  0.50019499     0.13400
F943        F  0.75277735  0.00212979  0.58380190    -0.13900
F944        F  0.83967076  0.95508129  0.46784698    -0.14400
F945        F  0.82237409  0.00490499  0.57921255    -0.16700
F946        F  0.77003056  0.95111910  0.47422913    -0.15300
F947        F  0.72490892  0.04848046  0.52235071    -0.15300
F948        F  0.64909626  0.90861592  0.53607202    -0.16700
C949        C  0.21842168  0.01428653  0.44248821     0.13400
C950        C  0.23316940  0.01989446  0.47115829     0.00300
C951        C  0.21091971  0.02447240  0.50354242     0.15300
C952        C  0.17464955  0.02244853  0.50752331     0.24700
C953        C  0.15953449  0.01636644  0.47892915    -0.41600
C954        C  0.18213987  0.01231772  0.44627322     0.31800
C955        C  0.27167996  0.02016757  0.46769461     0.00400
F956        F  0.22435026  0.02996241  0.53178932    -0.13900
F957        F  0.16936547  0.00630528  0.41777260    -0.14400
C958        C  0.28923139  0.05366112  0.47322682     0.15300
C959        C  0.32498768  0.05300763  0.47271049     0.24700
C960        C  0.34411633  0.01855006  0.46705348    -0.41500
C961        C  0.32682252  0.98585832  0.45930388     0.31700
C962        C  0.29097030  0.98659342  0.45986132     0.13400
F963        F  0.27161014  0.08713177  0.47926981    -0.13900
F964        F  0.34420048  0.95251952  0.45245292    -0.14400
F965        F  0.34088569  0.08631934  0.47771813    -0.16700
F966        F  0.27479014  0.95380383  0.45417430    -0.15300
F967        F  0.23926945  0.01131376  0.41049136    -0.15300
F968        F  0.15453335  0.02539672  0.53985897    -0.16700
C969        C  0.91810893  0.76238277  0.51640719     0.13400
C970        C  0.88348701  0.76368037  0.51245109     0.00300
C971        C  0.86909489  0.80062172  0.50283088     0.15300
C972        C  0.88904096  0.83590309  0.49732888     0.24700
C973        C  0.92390634  0.83474972  0.50096280    -0.41600
C974        C  0.93823294  0.79759185  0.51064519     0.31800
C975        C  0.86372137  0.72634937  0.51425865     0.00400
F976        F  0.83569451  0.80244317  0.49862382    -0.13900
F977        F  0.97197245  0.79525129  0.51374145    -0.14400
C978        C  0.85037668  0.70140789  0.54683352     0.15300
C979        C  0.83150863  0.66615409  0.54762495     0.24700
C980        C  0.82605630  0.65547946  0.51576152    -0.41500
C981        C  0.84059656  0.68010862  0.48321877     0.31700
C982        C  0.85879968  0.71534913  0.48257960     0.13400
F983        F  0.85487579  0.71174401  0.57779402    -0.13900
F984        F  0.83768213  0.66975038  0.45175586    -0.14400
F985        F  0.81762822  0.64331168  0.57944469    -0.16700
F986        F  0.87192385  0.73880816  0.45084439    -0.15300
F987        F  0.93275660  0.72685291  0.52463377    -0.15300
F988        F  0.87391539  0.87123223  0.48945933    -0.16700
C989        C  0.09917922  0.21359306  0.52257016     0.13400
C990        C  0.11706961  0.23244160  0.48873433     0.00300
C991        C  0.11383436  0.21645323  0.45854885     0.15300
C992        C  0.09303298  0.18215974  0.46211110     0.24700
C993        C  0.07495029  0.16340422  0.49597715    -0.41600
C994        C  0.07811377  0.17952089  0.52613702     0.31800
C995        C  0.13910478  0.26871503  0.48511684     0.00400
F996        F  0.13152394  0.23353290  0.42569598    -0.13900
F997        F  0.05996315  0.16298088  0.55896137    -0.14400
C998        C  0.16702070  0.26752038  0.50234854     0.15300
C999        C  0.18633230  0.30219639  0.50140589     0.24700
C1000       C  0.17847851  0.33904647  0.48262350    -0.41500
C1001       C  0.15132990  0.33964165  0.46391342     0.31700
C1002       C  0.13178074  0.30484712  0.46536318     0.13400
F1003       F  0.17557383  0.23255104  0.52026451    -0.13900
F1004       F  0.14270764  0.37402893  0.44515464    -0.14400
F1005       F  0.21241778  0.29947575  0.51946382    -0.16700
F1006       F  0.10482903  0.30674949  0.44847751    -0.15300
F1007       F  0.10164893  0.22863317  0.55215793    -0.15300
F1008       F  0.09137587  0.16665128  0.43251965    -0.16700
loop_ 
_geom_bond_atom_site_label_1 
_geom_bond_atom_site_label_2 
_geom_bond_distance 
_geom_bond_site_symmetry_2 
_ccdc_geom_bond_type 
Zr1           O2   2.441       .  S
Zr1           O3   2.437       .  S
Zr1           O4   2.441       .  S
Zr1           O7   2.415       .  S
Zr1           O9   2.380   1_655  S
Zr1          O10   2.384       .  S
Zr1          O11   2.397   1_565  S
Zr1          O12   2.406   1_565  S
O2           H58   0.990       .  S
O2           H66   0.991   1_565  S
O3           C23   1.286       .  A
O4           C25   1.285   1_655  A
O5          Zr15   2.446   1_565  S
O5           C24   1.287       .  A
O6          Zr14   2.436       .  S
O6           C25   1.286       .  A
O7           C24   1.282       .  A
O8          Zr16   2.409   1_655  S
O8           C23   1.280       .  A
O9          Zr14   2.393       .  S
O9          Zr16   2.379       .  S
O10         Zr15   2.383   1_565  S
O10         Zr16   2.376   1_655  S
O10          H45   0.964       .  S
O11         Zr14   2.396   1_645  S
O11         Zr31   2.392       .  S
O11          H48   0.965       .  S
O12         Zr15   2.382       .  S
O12         Zr31   2.393       .  S
Zr13         O38   2.438       .  S
Zr13         O32   2.441       .  S
Zr13         O40   2.444       .  S
Zr13         O28   2.453       .  S
Zr13         O19   2.398   1_445  S
Zr13         O20   2.406   1_545  S
Zr13         O21   2.372       .  S
Zr13         O22   2.388   1_455  S
Zr14         O33   2.433   1_565  S
Zr14         O26   2.435       .  S
Zr14         O27   2.429   1_565  S
Zr14         O20   2.402       .  S
Zr14         O21   2.387   1_565  S
Zr15         O17   2.436       .  S
Zr15         O39   2.440   1_545  S
Zr15         O41   2.419       .  S
Zr15         O19   2.393   1_545  S
Zr15         O22   2.393       .  S
Zr16         O42   2.435   1_455  S
Zr16         O43   2.434       .  S
Zr16         O18   2.434       .  S
Zr16         O19   2.386   1_455  S
Zr16         O20   2.387       .  S
O17          H54   0.990       .  S
O18          H49   0.990       .  S
O18          H63   0.990       .  S
O20          H46   0.965       .  S
O21         Zr31   2.375   1_455  S
O22         Zr31   2.384       .  S
O22          H47   0.966       .  S
C23         C973   1.478       .  S
C24         C940   1.494       .  S
C25         C913   1.488       .  S
O26          H62   0.990       .  S
O27          C29   1.285       .  A
O28          C29   1.287       .  A
C29         C953   1.500       .  S
O30         Zr31   2.440       .  S
O30          H59   0.990       .  S
Zr31         O34   2.437   1_655  S
Zr31         O35   2.444       .  S
Zr31         O36   2.412   1_655  S
O32          C37   1.285       .  A
O33          H50   0.990       .  S
O33          H65   0.990       .  S
O34          H51   0.990       .  S
O35          H55   0.990       .  S
O35          H64   0.990       .  S
O36          C37   1.280       .  A
C37         C993   1.476       .  S
O38          H57   0.990   1_545  S
O38          H61   0.990       .  S
O39          H53   0.990       .  S
O39          H60   0.990       .  S
O40          C44   1.287   1_455  A
O41          C44   1.282       .  A
O42          H52   0.990       .  S
O43          H56   0.990       .  S
C44         C900   1.493       .  S
Zr67         O68   2.443       .  S
Zr67         O69   2.439       .  S
Zr67         O70   2.440       .  S
Zr67         O73   2.438       .  S
Zr67         O75   2.381   1_545  S
Zr67         O76   2.379       .  S
Zr67         O77   2.413       .  S
Zr67         O78   2.400       .  S
O68         H124   0.991       .  S
O68         H132   0.990       .  S
O69          C89   1.284   1_545  A
O70          C91   1.284   1_545  A
O71         Zr81   2.429       .  S
O71          C90   1.284       .  A
O72         Zr80   2.424       .  S
O72          C91   1.282       .  A
O73          C90   1.286       .  A
O74         Zr82   2.425       .  S
O74          C89   1.282       .  A
O75         Zr80   2.391       .  S
O75         Zr82   2.375       .  S
O76         Zr81   2.395       .  S
O76         Zr82   2.382   1_545  S
O76         H111   0.964       .  S
O77         Zr80   2.407   1_545  S
O77         Zr97   2.403       .  S
O77         H114   0.965       .  S
O78         Zr81   2.389       .  S
O78         Zr97   2.393       .  S
Zr79        O104   2.440       .  S
Zr79         O98   2.449       .  S
Zr79        O106   2.434       .  S
Zr79         O94   2.436       .  S
Zr79         O85   2.400       .  S
Zr79         O86   2.414       .  S
Zr79         O87   2.373       .  S
Zr79         O88   2.381   1_565  S
Zr80         O99   2.438       .  S
Zr80         O92   2.436       .  S
Zr80         O93   2.427       .  S
Zr80         O86   2.398       .  S
Zr80         O87   2.392       .  S
Zr81         O83   2.438       .  S
Zr81        O105   2.440       .  S
Zr81        O107   2.416       .  S
Zr81         O85   2.389   1_545  S
Zr81         O88   2.399       .  S
Zr82        O108   2.436       .  S
Zr82        O109   2.434       .  S
Zr82         O84   2.437       .  S
Zr82         O85   2.392       .  S
Zr82         O86   2.401       .  S
O83         H120   0.990       .  S
O84         H115   0.990       .  S
O84         H129   0.990       .  S
O86         H112   0.966       .  S
O87         Zr97   2.370   1_565  S
O88         Zr97   2.376       .  S
O88         H113   0.967       .  S
C89         C933   1.481       .  S
C90         C873   1.485       .  S
C91         C813   1.476       .  S
O92         H128   0.990       .  S
O93          C95   1.284       .  A
O94          C95   1.285       .  A
C95         C853   1.481       .  S
O96         Zr97   2.436       .  S
O96         H125   0.990       .  S
Zr97        O100   2.436       .  S
Zr97        O101   2.438       .  S
Zr97        O102   2.432       .  S
O98         C103   1.287   1_565  A
O99         H116   0.990       .  S
O99         H131   0.990       .  S
O100        H117   0.990       .  S
O101        H121   0.990       .  S
O101        H130   0.990       .  S
O102        C103   1.284       .  A
C103        C960   1.498       .  S
O104        H123   0.990       .  S
O104        H127   0.990       .  S
O105        H119   0.990       .  S
O105        H126   0.990       .  S
O106        C110   1.286   1_565  A
O107        C110   1.282       .  A
O108        H118   0.990       .  S
O109        H122   0.990       .  S
C110        C840   1.489       .  S
Zr133       O134   2.440       .  S
Zr133       O135   2.432       .  S
Zr133       O136   2.440       .  S
Zr133       O139   2.423       .  S
Zr133       O141   2.384       .  S
Zr133       O142   2.382       .  S
Zr133       O143   2.405       .  S
Zr133       O144   2.403       .  S
O134        H190   0.990       .  S
O134        H198   0.990       .  S
O135        C155   1.283       .  A
O136        C157   1.285       .  A
O137       Zr147   2.442       .  S
O137        C156   1.287       .  A
O138       Zr146   2.435       .  S
O138        C157   1.285       .  A
O139        C156   1.283       .  A
O140       Zr148   2.424       .  S
O140        C155   1.282       .  A
O141       Zr146   2.397       .  S
O141       Zr148   2.380       .  S
O142       Zr147   2.388       .  S
O142       Zr148   2.375       .  S
O142        H177   0.964       .  S
O143       Zr146   2.397       .  S
O143       Zr163   2.388       .  S
O143        H180   0.965       .  S
O144       Zr147   2.393       .  S
O144       Zr163   2.396       .  S
Zr145       O170   2.443       .  S
Zr145       O164   2.439       .  S
Zr145       O172   2.452       .  S
Zr145       O160   2.438       .  S
Zr145       O151   2.402       .  S
Zr145       O152   2.413       .  S
Zr145       O153   2.381       .  S
Zr145       O154   2.385       .  S
Zr146       O165   2.438       .  S
Zr146       O158   2.435       .  S
Zr146       O159   2.430       .  S
Zr146       O152   2.401       .  S
Zr146       O153   2.394       .  S
Zr147       O149   2.434       .  S
Zr147       O171   2.437       .  S
Zr147       O173   2.433       .  S
Zr147       O151   2.395       .  S
Zr147       O154   2.399       .  S
Zr148       O174   2.436       .  S
Zr148       O175   2.435       .  S
Zr148       O150   2.436       .  S
Zr148       O151   2.398       .  S
Zr148       O152   2.388       .  S
O149        H186   0.990       .  S
O150        H181   0.990       .  S
O150        H195   0.990       .  S
O152        H178   0.965       .  S
O153       Zr163   2.372       .  S
O154       Zr163   2.385       .  S
O154        H179   0.966       .  S
C155       C1000   1.493       .  S
C156        C800   1.486       .  S
C157        C753   1.498       .  S
O158        H194   0.990       .  S
O159        C161   1.284       .  A
O160        C161   1.286       .  A
C161        C773   1.487       .  S
O162       Zr163   2.439       .  S
O162        H191   0.990       .  S
Zr163       O166   2.438       .  S
Zr163       O167   2.437       .  S
Zr163       O168   2.417       .  S
O164        C169   1.284       .  A
O165        H182   0.990       .  S
O165        H197   0.990       .  S
O166        H183   0.990       .  S
O167        H187   0.990       .  S
O167        H196   0.990       .  S
O168        C169   1.281       .  A
C169        C860   1.477       .  S
O170        H189   0.991       .  S
O170        H193   0.990       .  S
O171        H185   0.990       .  S
O171        H192   0.990       .  S
O172        C176   1.286       .  A
O173        C176   1.284       .  A
O174        H184   0.990       .  S
O175        H188   0.990       .  S
C176        C733   1.494       .  S
Zr199       O200   2.442       .  S
Zr199       O201   2.438       .  S
Zr199       O202   2.433       .  S
Zr199       O205   2.408       .  S
Zr199       O207   2.376       .  S
Zr199       O208   2.388       .  S
Zr199       O209   2.397       .  S
Zr199       O210   2.402       .  S
O200        H256   0.991       .  S
O200        H264   0.991       .  S
O201        C221   1.284       .  A
O202        C223   1.284       .  A
O203       Zr213   2.452       .  S
O203        C222   1.289       .  A
O204       Zr212   2.438       .  S
O204        C223   1.285       .  A
O205        C222   1.281       .  A
O206       Zr214   2.422       .  S
O206        C221   1.282       .  A
O207       Zr212   2.397       .  S
O207       Zr214   2.379       .  S
O208       Zr213   2.399       .  S
O208       Zr214   2.374       .  S
O208        H243   0.964       .  S
O209       Zr212   2.401       .  S
O209       Zr229   2.391       .  S
O209        H246   0.965       .  S
O210       Zr213   2.395       .  S
O210       Zr229   2.388       .  S
Zr211       O236   2.447       .  S
Zr211       O230   2.448       .  S
Zr211       O238   2.423       .  S
Zr211       O226   2.419       .  S
Zr211       O217   2.399       .  S
Zr211       O218   2.405       .  S
Zr211       O219   2.373       .  S
Zr211       O220   2.381       .  S
Zr212       O231   2.438       .  S
Zr212       O224   2.434       .  S
Zr212       O225   2.442       .  S
Zr212       O218   2.396       .  S
Zr212       O219   2.388       .  S
Zr213       O215   2.435       .  S
Zr213       O237   2.438       .  S
Zr213       O239   2.464       .  S
Zr213       O217   2.390       .  S
Zr213       O220   2.391       .  S
Zr214       O240   2.434       .  S
Zr214       O241   2.434       .  S
Zr214       O216   2.436       .  S
Zr214       O217   2.394       .  S
Zr214       O218   2.401       .  S
O215        H252   0.990       .  S
O216        H247   0.991       .  S
O216        H261   0.990       .  S
O218        H244   0.965       .  S
O219       Zr229   2.373       .  S
O220       Zr229   2.382       .  S
O220        H245   0.966       .  S
C221        C880   1.479       .  S
C222        C780   1.487       .  S
C223        C713   1.488       .  S
O224        H260   0.990       .  S
O225        C227   1.287       .  A
O226        C227   1.282       .  A
C227        C793   1.485       .  S
O228       Zr229   2.440       .  S
O228        H257   0.991       .  S
Zr229       O232   2.438       .  S
Zr229       O233   2.439       .  S
Zr229       O234   2.410       .  S
O230        C235   1.287       .  A
O231        H248   0.990       .  S
O231        H263   0.990       .  S
O232        H249   0.990       .  S
O233        H253   0.990       .  S
O233        H262   0.990       .  S
O234        C235   1.281       .  A
C235        C980   1.482       .  S
O236        H255   0.990       .  S
O236        H259   0.990       .  S
O237        H251   0.990       .  S
O237        H258   0.990       .  S
O238        C242   1.284       .  A
O239        C242   1.291       .  A
O240        H250   0.990       .  S
O241        H254   0.990       .  S
C242        C693   1.498       .  S
Zr265       O266   2.440       .  S
Zr265       O267   2.431       .  S
Zr265       O268   2.449       .  S
Zr265       O271   2.432       .  S
Zr265       O273   2.383   1_545  S
Zr265       O274   2.383   1_556  S
Zr265       O275   2.405   1_655  S
Zr265       O276   2.398       .  S
O266        H322   0.990       .  S
O266        H330   0.990       .  S
O267        C287   1.283   1_546  A
O268        C289   1.286   1_545  A
O269       Zr279   2.429       .  S
O269        C288   1.283       .  A
O270       Zr278   2.426       .  S
O270        C289   1.283   1_455  A
O271        C288   1.284   1_556  A
O272       Zr280   2.412       .  S
O272        C287   1.279       .  A
O273       Zr278   2.399   1_655  S
O273       Zr280   2.380   1_556  S
O274       Zr279   2.387       .  S
O274       Zr280   2.381   1_545  S
O274        H309   0.964       .  S
O275       Zr278   2.406   1_545  S
O275       Zr295   2.385       .  S
O275        H312   0.966       .  S
O276       Zr279   2.387   1_556  S
O276       Zr295   2.388   1_655  S
Zr277       O302   2.442       .  S
Zr277       O296   2.430       .  S
Zr277       O304   2.457       .  S
Zr277       O292   2.433       .  S
Zr277       O283   2.396   1_455  S
Zr277       O284   2.408       .  S
Zr277       O285   2.381   1_554  S
Zr277       O286   2.386   1_565  S
Zr278       O297   2.436       .  S
Zr278       O290   2.433   1_455  S
Zr278       O291   2.443       .  S
Zr278       O284   2.396   1_556  S
Zr278       O285   2.386       .  S
Zr279       O281   2.433   1_655  S
Zr279       O303   2.438       .  S
Zr279       O305   2.421       .  S
Zr279       O283   2.398   1_545  S
Zr279       O286   2.394   1_655  S
Zr280       O306   2.435       .  S
Zr280       O307   2.437       .  S
Zr280       O282   2.439       .  S
Zr280       O283   2.397       .  S
Zr280       O284   2.388   1_655  S
O281        H318   0.990   1_455  S
O282        H313   0.990       .  S
O282        H327   0.990   1_554  S
O284        H310   0.964       .  S
O285       Zr295   2.375   1_565  S
O286       Zr295   2.389   1_554  S
O286        H311   0.966       .  S
C287        C620   1.469       .  S
C288        C653   1.478       .  S
C289        C893   1.495       .  S
O290        H326   0.990       .  S
O291        C293   1.287       .  A
O292        C293   1.285   1_554  A
C293        C673   1.488       .  S
O294       Zr295   2.441       .  S
O294        H323   0.990       .  S
Zr295       O298   2.439       .  S
Zr295       O299   2.441       .  S
Zr295       O300   2.398       .  S
O296        C301   1.283   1_565  A
O297        H314   0.990       .  S
O297        H329   0.990       .  S
O298        H315   0.990       .  S
O299        H319   0.990       .  S
O299        H328   0.989       .  S
O300        C301   1.277   1_556  A
C301        C633   1.481   1_554  S
O302        H321   0.990       .  S
O302        H325   0.990       .  S
O303        H317   0.990       .  S
O303        H324   0.990       .  S
O304        C308   1.288   1_565  A
O305        C308   1.283   1_655  A
O306        H316   0.990       .  S
O307        H320   0.990       .  S
C308        C920   1.496   1_545  S
Zr331       O332   2.441       .  S
Zr331       O333   2.426       .  S
Zr331       O334   2.457       .  S
Zr331       O337   2.447       .  S
Zr331       O339   2.386   1_545  S
Zr331       O340   2.391   1_556  S
Zr331       O341   2.404       .  S
Zr331       O342   2.401       .  S
O332        H388   0.990       .  S
O332        H396   0.990       .  S
O333        C353   1.283   1_545  A
O334        C355   1.288   1_545  A
O335       Zr345   2.412       .  S
O335        C354   1.282   1_554  A
O336       Zr344   2.419       .  S
O336        C355   1.282       .  A
O337        C354   1.288       .  A
O338       Zr346   2.413       .  S
O338        C353   1.280   1_554  A
O339       Zr344   2.391       .  S
O339       Zr346   2.380   1_556  S
O340       Zr345   2.386       .  S
O340       Zr346   2.377   1_545  S
O340        H375   0.967       .  S
O341       Zr344   2.402   1_545  S
O341       Zr361   2.390       .  S
O341        H378   0.966       .  S
O342       Zr345   2.390   1_556  S
O342       Zr361   2.379       .  S
Zr343       O368   2.443       .  S
Zr343       O362   2.433       .  S
Zr343       O370   2.426       .  S
Zr343       O358   2.422       .  S
Zr343       O349   2.399       .  S
Zr343       O350   2.401       .  S
Zr343       O351   2.375   1_554  S
Zr343       O352   2.383   1_565  S
Zr344       O363   2.436       .  S
Zr344       O356   2.436       .  S
Zr344       O357   2.426       .  S
Zr344       O350   2.390   1_556  S
Zr344       O351   2.377       .  S
Zr345       O347   2.435       .  S
Zr345       O369   2.435       .  S
Zr345       O371   2.432       .  S
Zr345       O349   2.385   1_545  S
Zr345       O352   2.382       .  S
Zr346       O372   2.438       .  S
Zr346       O373   2.436       .  S
Zr346       O348   2.436       .  S
Zr346       O349   2.395       .  S
Zr346       O350   2.393       .  S
O347        H384   0.990       .  S
O348        H379   0.990       .  S
O348        H393   0.990   1_554  S
O350        H376   0.964       .  S
O351       Zr361   2.373   1_565  S
O352       Zr361   2.375   1_554  S
O352        H377   0.966       .  S
C353        C640   1.469       .  S
C354        C573   1.487       .  S
C355        C820   1.479       .  S
O356        H392   0.990       .  S
O357        C359   1.285   1_556  A
O358        C359   1.282       .  A
C359        C600   1.476       .  S
O360       Zr361   2.440       .  S
O360        H389   0.990       .  S
Zr361       O364   2.437       .  S
Zr361       O365   2.441       .  S
Zr361       O366   2.396       .  S
O362        C367   1.285       .  A
O363        H380   0.990       .  S
O363        H395   0.990       .  S
O364        H381   0.990       .  S
O365        H385   0.990   1_556  S
O365        H394   0.989       .  S
O366        C367   1.277   1_546  A
C367        C613   1.483       .  S
O368        H387   0.990       .  S
O368        H391   0.990       .  S
O369        H383   0.990       .  S
O369        H390   0.990       .  S
O370        C374   1.284   1_565  A
O371        C374   1.285       .  A
O372        H382   0.990       .  S
O373        H386   0.990       .  S
C374        C833   1.482       .  S
Zr397       O398   2.441       .  S
Zr397       O399   2.418       .  S
Zr397       O400   2.462       .  S
Zr397       O403   2.439       .  S
Zr397       O405   2.383       .  S
Zr397       O406   2.390   1_556  S
Zr397       O407   2.396       .  S
Zr397       O408   2.404       .  S
O398        H454   0.990       .  S
O398        H462   0.991       .  S
O399        C419   1.281       .  A
O400        C421   1.289       .  A
O401       Zr411   2.436       .  S
O401        C420   1.286       .  A
O402       Zr410   2.436       .  S
O402        C421   1.285       .  A
O403        C420   1.287   1_556  A
O404       Zr412   2.409       .  S
O404        C419   1.279   1_554  A
O405       Zr410   2.396       .  S
O405       Zr412   2.382   1_556  S
O406       Zr411   2.388       .  S
O406       Zr412   2.375       .  S
O406        H441   0.965       .  S
O407       Zr410   2.392       .  S
O407       Zr427   2.383       .  S
O407        H444   0.965       .  S
O408       Zr411   2.395   1_556  S
O408       Zr427   2.382       .  S
Zr409       O434   2.445       .  S
Zr409       O428   2.422       .  S
Zr409       O436   2.446       .  S
Zr409       O424   2.445       .  S
Zr409       O415   2.401       .  S
Zr409       O416   2.406       .  S
Zr409       O417   2.383   1_554  S
Zr409       O418   2.388       .  S
Zr410       O429   2.438       .  S
Zr410       O422   2.434       .  S
Zr410       O423   2.428       .  S
Zr410       O416   2.401   1_556  S
Zr410       O417   2.382       .  S
Zr411       O413   2.436       .  S
Zr411       O435   2.438       .  S
Zr411       O437   2.442       .  S
Zr411       O415   2.387       .  S
Zr411       O418   2.385       .  S
Zr412       O438   2.438       .  S
Zr412       O439   2.433       .  S
Zr412       O414   2.434       .  S
Zr412       O415   2.394       .  S
Zr412       O416   2.394       .  S
O413        H450   0.990       .  S
O414        H445   0.990       .  S
O414        H459   0.990   1_554  S
O416        H442   0.964       .  S
O417       Zr427   2.374       .  S
O418       Zr427   2.381   1_554  S
O418        H443   0.966       .  S
C419        C560   1.473       .  S
C420        C680   1.487       .  S
C421        C740   1.504       .  S
O422        H458   0.990       .  S
O423        C425   1.284       .  A
O424        C425   1.288   1_554  A
C425        C580   1.488       .  S
O426       Zr427   2.438       .  S
O426        H455   0.990       .  S
Zr427       O430   2.436       .  S
Zr427       O431   2.437       .  S
Zr427       O432   2.408       .  S
O428        C433   1.283       .  A
O429        H446   0.990       .  S
O429        H461   0.990       .  S
O430        H447   0.990       .  S
O431        H451   0.990   1_556  S
O431        H460   0.990       .  S
O432        C433   1.281   1_556  A
C433        C533   1.474       .  S
O434        H453   0.990       .  S
O434        H457   0.990       .  S
O435        H449   0.990       .  S
O435        H456   0.990       .  S
O436        C440   1.287       .  A
O437        C440   1.287       .  A
O438        H448   0.990       .  S
O439        H452   0.990       .  S
C440        C760   1.500       .  S
Zr463       O464   2.440       .  S
Zr463       O465   2.416       .  S
Zr463       O466   2.447       .  S
Zr463       O469   2.435       .  S
Zr463       O471   2.385       .  S
Zr463       O472   2.384   1_556  S
Zr463       O473   2.398       .  S
Zr463       O474   2.395       .  S
O464        H520   0.990       .  S
O464        H528   0.990       .  S
O465        C485   1.281       .  A
O466        C487   1.286       .  A
O467       Zr477   2.415       .  S
O467        C486   1.282       .  A
O468       Zr476   2.438       .  S
O468        C487   1.286       .  A
O469        C486   1.286   1_556  A
O470       Zr478   2.398       .  S
O470        C485   1.278   1_554  A
O471       Zr476   2.397       .  S
O471       Zr478   2.382   1_556  S
O472       Zr477   2.390       .  S
O472       Zr478   2.376       .  S
O472        H507   0.966       .  S
O473       Zr476   2.403       .  S
O473       Zr493   2.388       .  S
O473        H510   0.966       .  S
O474       Zr477   2.394   1_556  S
O474       Zr493   2.380       .  S
Zr475       O500   2.440       .  S
Zr475       O494   2.415       .  S
Zr475       O502   2.428       .  S
Zr475       O490   2.417       .  S
Zr475       O481   2.388       .  S
Zr475       O482   2.399       .  S
Zr475       O483   2.380   1_554  S
Zr475       O484   2.382       .  S
Zr476       O495   2.438       .  S
Zr476       O488   2.435       .  S
Zr476       O489   2.449       .  S
Zr476       O482   2.398   1_556  S
Zr476       O483   2.385       .  S
Zr477       O479   2.436       .  S
Zr477       O501   2.436       .  S
Zr477       O503   2.437       .  S
Zr477       O481   2.386       .  S
Zr477       O484   2.381       .  S
Zr478       O504   2.434       .  S
Zr478       O505   2.436       .  S
Zr478       O480   2.436       .  S
Zr478       O481   2.387       .  S
Zr478       O482   2.382       .  S
O479        H516   0.990       .  S
O480        H511   0.990       .  S
O480        H525   0.990   1_554  S
O482        H508   0.965       .  S
O483       Zr493   2.376       .  S
O484       Zr493   2.379   1_554  S
O484        H509   0.966       .  S
C485        C540   1.465       .  S
C486        C593   1.481       .  S
C487        C700   1.496       .  S
O488        H524   0.990       .  S
O489        C491   1.288       .  A
O490        C491   1.282   1_554  A
C491        C660   1.489       .  S
O492       Zr493   2.440       .  S
O492        H521   0.990       .  S
Zr493       O496   2.435       .  S
Zr493       O497   2.440       .  S
Zr493       O498   2.400       .  S
O494        C499   1.282       .  A
O495        H512   0.990       .  S
O495        H527   0.990       .  S
O496        H513   0.990       .  S
O497        H517   0.990   1_556  S
O497        H526   0.990       .  S
O498        C499   1.279   1_556  A
C499        C553   1.467       .  S
O500        H519   0.991       .  S
O500        H523   0.990       .  S
O501        H515   0.990       .  S
O501        H522   0.990       .  S
O502        C506   1.285       .  A
O503        C506   1.286       .  A
O504        H514   0.990       .  S
O505        H518   0.990       .  S
C506        C720   1.494       .  S
C529        C530   1.399   1_556  A
C529        C534   1.391       .  A
C529        F547   1.358       .  S
C530        C535   1.466   1_554  S
C530        C531   1.403       .  A
C531        C532   1.395       .  A
C531        F536   1.358       .  S
C532        C533   1.409       .  A
C532        F548   1.358       .  S
C533        C534   1.411   1_554  A
C534        F537   1.358       .  S
C535        C538   1.403       .  A
C535        C542   1.401   1_556  A
C538        C539   1.393       .  A
C538        F543   1.358       .  S
C539        C540   1.407       .  A
C539        F545   1.358       .  S
C540        C541   1.407       .  A
C541        C542   1.391   1_556  A
C541        F544   1.358   1_556  S
C542        F546   1.358       .  S
C549        C550   1.401   1_556  A
C549        C554   1.386       .  A
C549        F567   1.359       .  S
C550        C555   1.469   1_655  S
C550        C551   1.406       .  A
C551        C552   1.397       .  A
C551        F556   1.358       .  S
C552        C553   1.406       .  A
C552        F568   1.358       .  S
C553        C554   1.408   1_554  A
C554        F557   1.358       .  S
C555        C558   1.403   1_554  A
C555        C562   1.402       .  A
C558        C559   1.391       .  A
C558        F563   1.359       .  S
C559        C560   1.408       .  A
C559        F565   1.358       .  S
C560        C561   1.410   1_556  A
C561        C562   1.394       .  A
C561        F564   1.358       .  S
C562        F566   1.358       .  S
C569        C570   1.403   1_554  A
C569        C574   1.394       .  A
C569        F587   1.358       .  S
C570        C575   1.484       .  S
C570        C571   1.408       .  A
C571        C572   1.403       .  A
C571        F576   1.358       .  S
C572        C573   1.410       .  A
C572        F588   1.358       .  S
C573        C574   1.412   1_556  A
C574        F577   1.358       .  S
C575        C578   1.408       .  A
C575        C582   1.403       .  A
C578        C579   1.401   1_556  A
C578        F583   1.358   1_556  S
C579        C580   1.410   1_554  A
C579        F585   1.358       .  S
C580        C581   1.412       .  A
C581        C582   1.398       .  A
C581        F584   1.357       .  S
C582        F586   1.358       .  S
C589        C590   1.403       .  A
C589        C594   1.399       .  A
C589        F607   1.358       .  S
C590        C595   1.476       .  S
C590        C591   1.404   1_554  A
C591        C592   1.395       .  A
C591        F596   1.358       .  S
C592        C593   1.408   1_556  A
C592        F608   1.358       .  S
C593        C594   1.412       .  A
C594        F597   1.358       .  S
C595        C598   1.403   1_554  A
C595        C602   1.405       .  A
C598        C599   1.396       .  A
C598        F603   1.358       .  S
C599        C600   1.407   1_556  A
C599        F605   1.358       .  S
C600        C601   1.408       .  A
C601        C602   1.398       .  A
C601        F604   1.358       .  S
C602        F606   1.358       .  S
C609        C610   1.399   1_546  A
C609        C614   1.389       .  A
C609        F627   1.359       .  S
C610        C615   1.474       .  S
C610        C611   1.405       .  A
C611        C612   1.400       .  A
C611        F616   1.357       .  S
C612        C613   1.410       .  A
C612        F628   1.358       .  S
C613        C614   1.415   1_564  A
C614        F617   1.358       .  S
C615        C618   1.406   1_565  A
C615        C622   1.403       .  A
C618        C619   1.395       .  A
C618        F623   1.359       .  S
C619        C620   1.406   1_545  A
C619        F625   1.359   1_554  S
C620        C621   1.405       .  A
C621        C622   1.396       .  A
C621        F624   1.358       .  S
C622        F626   1.358       .  S
C629        C630   1.403   1_564  A
C629        C634   1.397       .  A
C629        F647   1.358       .  S
C630        C635   1.469   1_545  S
C630        C631   1.399       .  A
C631        C632   1.390       .  A
C631        F636   1.358       .  S
C632        C633   1.414       .  A
C632        F648   1.358       .  S
C633        C634   1.411   1_546  A
C634        F637   1.358       .  S
C635        C638   1.403       .  A
C635        C642   1.403   1_565  A
C638        C639   1.396       .  A
C638        F643   1.358       .  S
C639        C640   1.408       .  A
C639        F645   1.358       .  S
C640        C641   1.406   1_565  A
C641        C642   1.393       .  A
C641        F644   1.358       .  S
C642        F646   1.358       .  S
C649        C650   1.405       .  A
C649        C654   1.400       .  A
C649        F667   1.358       .  S
C650        C655   1.481       .  S
C650        C651   1.405   1_556  A
C651        C652   1.400       .  A
C651        F656   1.358       .  S
C652        C653   1.407       .  A
C652        F668   1.358       .  S
C653        C654   1.408   1_554  A
C654        F657   1.358       .  S
C655        C658   1.403       .  A
C655        C662   1.403   1_556  A
C658        C659   1.400       .  A
C658        F663   1.357       .  S
C659        C660   1.410       .  A
C659        F665   1.357       .  S
C660        C661   1.414   1_556  A
C661        C662   1.399       .  A
C661        F664   1.359       .  S
C662        F666   1.358       .  S
C669        C670   1.404       .  A
C669        C674   1.402       .  A
C669        F687   1.358       .  S
C670        C675   1.485       .  S
C670        C671   1.406   1_554  A
C671        C672   1.401       .  A
C671        F676   1.358       .  S
C672        C673   1.409       .  A
C672        F688   1.358       .  S
C673        C674   1.412   1_556  A
C674        F677   1.358       .  S
C675        C678   1.406       .  A
C675        C682   1.404   1_554  A
C678        C679   1.403       .  A
C678        F683   1.358       .  S
C679        C680   1.411       .  A
C679        F685   1.358       .  S
C680        C681   1.409   1_554  A
C681        C682   1.399       .  A
C681        F684   1.358       .  S
C682        F686   1.358       .  S
C689        C690   1.405       .  A
C689        C694   1.407       .  A
C689        F707   1.358       .  S
C690        C695   1.487       .  S
C690        C691   1.403       .  A
C691        C692   1.400       .  A
C691        F696   1.358       .  S
C692        C693   1.414       .  A
C692        F708   1.358       .  S
C693        C694   1.413       .  A
C694        F697   1.357       .  S
C695        C698   1.405       .  A
C695        C702   1.403       .  A
C698        C699   1.404       .  A
C698        F703   1.358       .  S
C699        C700   1.413       .  A
C699        F705   1.358       .  S
C700        C701   1.413       .  A
C701        C702   1.401       .  A
C701        F704   1.357       .  S
C702        F706   1.358       .  S
C709        C710   1.402       .  A
C709        C714   1.402       .  A
C709        F727   1.358       .  S
C710        C715   1.476       .  S
C710        C711   1.401       .  A
C711        C712   1.398       .  A
C711        F716   1.358       .  S
C712        C713   1.411       .  A
C712        F728   1.358       .  S
C713        C714   1.413       .  A
C714        F717   1.358       .  S
C715        C718   1.401       .  A
C715        C722   1.400       .  A
C718        C719   1.401       .  A
C718        F723   1.358       .  S
C719        C720   1.416       .  A
C719        F725   1.358       .  S
C720        C721   1.413       .  A
C721        C722   1.399       .  A
C721        F724   1.358       .  S
C722        F726   1.358       .  S
C729        C730   1.406       .  A
C729        C734   1.406       .  A
C729        F747   1.358       .  S
C730        C735   1.489       .  S
C730        C731   1.404       .  A
C731        C732   1.402       .  A
C731        F736   1.358       .  S
C732        C733   1.410       .  A
C732        F748   1.357       .  S
C733        C734   1.413       .  A
C734        F737   1.358       .  S
C735        C738   1.403       .  A
C735        C742   1.404       .  A
C738        C739   1.405       .  A
C738        F743   1.358       .  S
C739        C740   1.417       .  A
C739        F745   1.358       .  S
C740        C741   1.415       .  A
C741        C742   1.404       .  A
C741        F744   1.356       .  S
C742        F746   1.358       .  S
C749        C750   1.403       .  A
C749        C754   1.403       .  A
C749        F767   1.358       .  S
C750        C755   1.486       .  S
C750        C751   1.403       .  A
C751        C752   1.399       .  A
C751        F756   1.358       .  S
C752        C753   1.414       .  A
C752        F768   1.357       .  S
C753        C754   1.416       .  A
C754        F757   1.358       .  S
C755        C758   1.404       .  A
C755        C762   1.402       .  A
C758        C759   1.406       .  A
C758        F763   1.358       .  S
C759        C760   1.416       .  A
C759        F765   1.357       .  S
C760        C761   1.414       .  A
C761        C762   1.399       .  A
C761        F764   1.358       .  S
C762        F766   1.358       .  S
C769        C770   1.408       .  A
C769        C774   1.403       .  A
C769        F787   1.358       .  S
C770        C775   1.485       .  S
C770        C771   1.404       .  A
C771        C772   1.395       .  A
C771        F776   1.358       .  S
C772        C773   1.410       .  A
C772        F788   1.357       .  S
C773        C774   1.412       .  A
C774        F777   1.358       .  S
C775        C778   1.407       .  A
C775        C782   1.404       .  A
C778        C779   1.399       .  A
C778        F783   1.358       .  S
C779        C780   1.408       .  A
C779        F785   1.358       .  S
C780        C781   1.414       .  A
C781        C782   1.398       .  A
C781        F784   1.358       .  S
C782        F786   1.358       .  S
C789        C790   1.406       .  A
C789        C794   1.401       .  A
C789        F807   1.357       .  S
C790        C795   1.482   1_655  S
C790        C791   1.403       .  A
C791        C792   1.396       .  A
C791        F796   1.358       .  S
C792        C793   1.412       .  A
C792        F808   1.357       .  S
C793        C794   1.409       .  A
C794        F797   1.358       .  S
C795        C798   1.405       .  A
C795        C802   1.404       .  A
C798        C799   1.399       .  A
C798        F803   1.358       .  S
C799        C800   1.409       .  A
C799        F805   1.357       .  S
C800        C801   1.412       .  A
C801        C802   1.399       .  A
C801        F804   1.358       .  S
C802        F806   1.358       .  S
C809        C810   1.406       .  A
C809        C814   1.402       .  A
C809        F827   1.358       .  S
C810        C815   1.477       .  S
C810        C811   1.401       .  A
C811        C812   1.396       .  A
C811        F816   1.358       .  S
C812        C813   1.407       .  A
C812        F828   1.357       .  S
C813        C814   1.407       .  A
C814        F817   1.358       .  S
C815        C818   1.404   1_565  A
C815        C822   1.403       .  A
C818        C819   1.400       .  A
C818        F823   1.358       .  S
C819        C820   1.407   1_545  A
C819        F825   1.357       .  S
C820        C821   1.409       .  A
C821        C822   1.400       .  A
C821        F824   1.358       .  S
C822        F826   1.358       .  S
C829        C830   1.403       .  A
C829        C834   1.398       .  A
C829        F847   1.358       .  S
C830        C835   1.476       .  S
C830        C831   1.403   1_545  A
C831        C832   1.395       .  A
C831        F836   1.358       .  S
C832        C833   1.410   1_565  A
C832        F848   1.357       .  S
C833        C834   1.410       .  A
C834        F837   1.358       .  S
C835        C838   1.402   1_545  A
C835        C842   1.402       .  A
C838        C839   1.395       .  A
C838        F843   1.358       .  S
C839        C840   1.412   1_565  A
C839        F845   1.357       .  S
C840        C841   1.416       .  A
C841        C842   1.397       .  A
C841        F844   1.358       .  S
C842        F846   1.358       .  S
C849        C850   1.405       .  A
C849        C854   1.400       .  A
C849        F867   1.358       .  S
C850        C855   1.480       .  S
C850        C851   1.403       .  A
C851        C852   1.397       .  A
C851        F856   1.358       .  S
C852        C853   1.408       .  A
C852        F868   1.356       .  S
C853        C854   1.409       .  A
C854        F857   1.358       .  S
C855        C858   1.405       .  A
C855        C862   1.405       .  A
C858        C859   1.401       .  A
C858        F863   1.358       .  S
C859        C860   1.407       .  A
C859        F865   1.357       .  S
C860        C861   1.407       .  A
C861        C862   1.397       .  A
C861        F864   1.358       .  S
C862        F866   1.358       .  S
C869        C870   1.408       .  A
C869        C874   1.405       .  A
C869        F887   1.358       .  S
C870        C875   1.488       .  S
C870        C871   1.406       .  A
C871        C872   1.396       .  A
C871        F876   1.358       .  S
C872        C873   1.407       .  A
C872        F888   1.358       .  S
C873        C874   1.411       .  A
C874        F877   1.358       .  S
C875        C878   1.407       .  A
C875        C882   1.409       .  A
C878        C879   1.396       .  A
C878        F883   1.358       .  S
C879        C880   1.406       .  A
C879        F885   1.358       .  S
C880        C881   1.407       .  A
C881        C882   1.404       .  A
C881        F884   1.358       .  S
C882        F886   1.357       .  S
C889        C890   1.402       .  A
C889        C894   1.399       .  A
C889        F907   1.358       .  S
C890        C895   1.479       .  S
C890        C891   1.402   1_645  A
C891        C892   1.398       .  A
C891        F896   1.358       .  S
C892        C893   1.415   1_455  A
C892        F908   1.358       .  S
C893        C894   1.415   1_565  A
C894        F897   1.356       .  S
C895        C898   1.402   1_655  A
C895        C902   1.402       .  A
C898        C899   1.398       .  A
C898        F903   1.358       .  S
C899        C900   1.413   1_455  A
C899        F905   1.357       .  S
C900        C901   1.416       .  A
C901        C902   1.399       .  A
C901        F904   1.358   1_545  S
C902        F906   1.358   1_545  S
C909        C910   1.405   1_655  A
C909        C914   1.404       .  A
C909        F927   1.358       .  S
C910        C915   1.479       .  S
C910        C911   1.401       .  A
C911        C912   1.396       .  A
C911        F916   1.358   1_565  S
C912        C913   1.411       .  A
C912        F928   1.357   1_565  S
C913        C914   1.412   1_455  A
C914        F917   1.358       .  S
C915        C918   1.402   1_465  A
C915        C922   1.402       .  A
C918        C919   1.402       .  A
C918        F923   1.358       .  S
C919        C920   1.417   1_645  A
C919        F925   1.358       .  S
C920        C921   1.412       .  A
C921        C922   1.400       .  A
C921        F924   1.357       .  S
C922        F926   1.358       .  S
C929        C930   1.403   1_545  A
C929        C934   1.398       .  A
C929        F947   1.358       .  S
C930        C935   1.480       .  S
C930        C931   1.405       .  A
C931        C932   1.401       .  A
C931        F936   1.358       .  S
C932        C933   1.409       .  A
C932        F948   1.358       .  S
C933        C934   1.407   1_565  A
C934        F937   1.357       .  S
C935        C938   1.402       .  A
C935        C942   1.402       .  A
C938        C939   1.399       .  A
C938        F943   1.358   1_565  S
C939        C940   1.413       .  A
C939        F945   1.358   1_565  S
C940        C941   1.416       .  A
C941        C942   1.398       .  A
C941        F944   1.358       .  S
C942        F946   1.358       .  S
C949        C950   1.404       .  A
C949        C954   1.403       .  A
C949        F967   1.357       .  S
C950        C955   1.491       .  S
C950        C951   1.406       .  A
C951        C952   1.402       .  A
C951        F956   1.358       .  S
C952        C953   1.414       .  A
C952        F968   1.357       .  S
C953        C954   1.415       .  A
C954        F957   1.358       .  S
C955        C958   1.404       .  A
C955        C962   1.407   1_545  A
C958        C959   1.402       .  A
C958        F963   1.358       .  S
C959        C960   1.412       .  A
C959        F965   1.358       .  S
C960        C961   1.412   1_545  A
C961        C962   1.405       .  A
C961        F964   1.356       .  S
C962        F966   1.358       .  S
C969        C970   1.402       .  A
C969        C974   1.398       .  A
C969        F987   1.358       .  S
C970        C975   1.476       .  S
C970        C971   1.404       .  A
C971        C972   1.398       .  A
C971        F976   1.358       .  S
C972        C973   1.408       .  A
C972        F988   1.358       .  S
C973        C974   1.410       .  A
C974        F977   1.358       .  S
C975        C978   1.407       .  A
C975        C982   1.399       .  A
C978        C979   1.405       .  A
C978        F983   1.358       .  S
C979        C980   1.408       .  A
C979        F985   1.358       .  S
C980        C981   1.410       .  A
C981        C982   1.393       .  A
C981        F984   1.358       .  S
C982        F986   1.358       .  S
C989        C990   1.407       .  A
C989        C994   1.398       .  A
C989       F1007   1.358       .  S
C990        C995   1.481       .  S
C990        C991   1.404       .  A
C991        C992   1.398       .  A
C991        F996   1.358       .  S
C992        C993   1.409       .  A
C992       F1008   1.358       .  S
C993        C994   1.405       .  A
C994        F997   1.358       .  S
C995        C998   1.401       .  A
C995       C1002   1.404       .  A
C998        C999   1.397       .  A
C998       F1003   1.358       .  S
C999       C1000   1.414       .  A
C999       F1005   1.358       .  S
C1000      C1001   1.414       .  A
C1001      C1002   1.401       .  A
C1001      F1004   1.358       .  S
C1002      F1006   1.358       .  S
