geometry optimzed in LAMMPS
_audit_creation_date              2020-12-01 
_audit_creation_method            'lammps2cif' 
_symmetry_space_group_name_H-M    'P1' 
_symmetry_Int_Tables_number       1 
_symmetry_cell_setting            triclinic 
loop_ 
_symmetry_equiv_pos_as_xyz 
  x,y,z 
_cell_length_a                    60.17858071 
_cell_length_b                    60.27369552402532 
_cell_length_c                    45.986141765456715 
_cell_angle_alpha                 89.87482945234174 
_cell_angle_beta                  90.05880113970683 
_cell_angle_gamma                 120.48189037575236 
loop_ 
_atom_site_label 
_atom_site_type_symbol 
_atom_site_fract_x 
_atom_site_fract_y 
_atom_site_fract_z 
_atom_site_charge 
Fe1        Fe  0.44134906  0.04328080  0.42544976     1.65800
Fe2        Fe  0.43692308  0.05566799  0.35663178     1.73200
Fe3        Fe  0.41494350  0.07853449  0.41094500     1.54400
O4          O  0.38705199  0.04767523  0.43519493    -0.81100
O5          O  0.44482058  0.09253299  0.34662926    -0.79400
O6          O  0.41346904  0.03717999  0.45625298    -0.83600
O7          O  0.46653635  0.07850558  0.44078365    -0.78400
O8          O  0.38824565  0.06465447  0.37608340    -0.80200
O9          O  0.47610405  0.06985085  0.36247213    -0.83000
C10         C  0.46016724  0.09219884  0.45514725     0.97800
C11         C  0.39171021  0.03564299  0.45461569     1.05200
O12         O  0.43083209  0.05930130  0.39736061    -1.11900
O13         O  0.42862196  0.01751616  0.36218858    -0.74400
O14         O  0.41636428  0.00863892  0.40817055    -0.77900
O15         O  0.44013634  0.09354584  0.44830543    -0.78600
C16         C  0.41816051  0.00133467  0.38295917     0.96700
O17         O  0.47111120  0.04586812  0.40096017    -0.76500
O18         O  0.39909750  0.04136589  0.34784960    -0.81700
C19         C  0.44764581  0.11201064  0.36056783     0.99300
C20         C  0.38342611  0.04837438  0.35562607     1.05200
O21         O  0.44088839  0.11031537  0.38707763    -0.77300
C22         C  0.48445924  0.05921198  0.37957084     1.03500
Fe23       Fe  0.06901408  0.12414156  0.64015654     1.65800
Fe24       Fe  0.06235688  0.10360770  0.57110051     1.73200
Fe25       Fe  0.08540585  0.16574528  0.58203317     1.54400
O26         O  0.06770112  0.17641157  0.61305434    -0.81100
O27         O  0.09937970  0.12039194  0.55537020    -0.79400
O28         O  0.05177018  0.14585005  0.64716103    -0.83600
O29         O  0.10488226  0.15506729  0.64789617    -0.78400
O30         O  0.05129762  0.15258022  0.55697441    -0.80200
O31         O  0.06950779  0.08097684  0.59747419    -0.83000
C32         C  0.12229140  0.17342721  0.63303910     0.97800
C33         C  0.05446891  0.16630536  0.63584812     1.05200
O34         O  0.07264299  0.13140808  0.59834212    -1.11900
O35         O  0.02539607  0.08681964  0.58767148    -0.74400
O36         O  0.03239960  0.09220090  0.63562921    -0.77900
O37         O  0.11871657  0.17971747  0.60757935    -0.78600
C38         C  0.01754236  0.08172775  0.61394793     0.96700
O39         O  0.08630398  0.10156113  0.63864739    -0.76500
O40         O  0.05409984  0.12108592  0.53787370    -0.81700
C41         C  0.11105297  0.14222851  0.54290444     0.99300
C42         C  0.04257805  0.13352057  0.53967427     1.05200
O43         O  0.10546314  0.15969774  0.54805055    -0.77300
C44         C  0.08190396  0.08392510  0.62058786     1.03500
Fe45       Fe  0.05604022  0.44440718  0.56314502     1.65800
Fe46       Fe  0.06215102  0.43211140  0.63403165     1.73200
Fe47       Fe  0.08770443  0.41235689  0.57946393     1.54400
O48         O  0.05977147  0.38971028  0.54845907    -0.81100
O49         O  0.09954823  0.44290398  0.64587102    -0.79400
O50         O  0.04283970  0.41349983  0.53510226    -0.83600
O51         O  0.09135490  0.46429577  0.54372658    -0.78400
O52         O  0.06776156  0.38166147  0.60785896    -0.80200
O53         O  0.07425230  0.47075257  0.63237889    -0.83000
C54         C  0.11035837  0.46109390  0.53987816     0.97800
C55         C  0.04408794  0.39318485  0.53333111     1.05200
O56         O  0.06866980  0.42956659  0.59230469    -1.11900
O57         O  0.02351524  0.42143515  0.62732107    -0.74400
O58         O  0.01988859  0.42670723  0.58019408    -0.77900
O59         O  0.11087490  0.44154527  0.54957611    -0.78600
C60         C  0.00997768  0.41973029  0.60518981     0.96700
O61         O  0.06633093  0.47699949  0.58707231    -0.76500
O62         O  0.04981297  0.39426914  0.64137923    -0.81700
C63         C  0.11849373  0.44236287  0.63441856     0.99300
C64         C  0.05377339  0.37741616  0.63024635     1.05200
O65         O  0.11697144  0.43218002  0.60970814    -0.77300
C66         C  0.07367728  0.48511658  0.61268831     1.03500
Fe67       Fe  0.12726367  0.06101517  0.35980472     1.65800
Fe68       Fe  0.10940981  0.05175563  0.43108156     1.73200
Fe69       Fe  0.17338982  0.08573660  0.41435205     1.54400
O70         O  0.18436724  0.06675205  0.38495527    -0.81100
O71         O  0.12435499  0.08582611  0.45247792    -0.79400
O72         O  0.15438491  0.05128841  0.35030318    -0.83600
O73         O  0.15297224  0.09893546  0.34964174    -0.78400
O74         O  0.16946618  0.05839971  0.44509230    -0.80200
O75         O  0.08587964  0.06157781  0.40910362    -0.83000
C76         C  0.17317756  0.11735580  0.36092822     0.97800
C77         C  0.17502250  0.05439900  0.36140252     1.05200
O78         O  0.13674967  0.06623449  0.40164580    -1.11900
O79         O  0.09146665  0.01639051  0.41208247    -0.74400
O80         O  0.10056659  0.02183160  0.36492334    -0.77900
O81         O  0.18215516  0.11498689  0.38497972    -0.78600
C82         C  0.08879915  0.00746834  0.38659337     0.96700
O83         O  0.09822384  0.06996937  0.36288418    -0.76500
O84         O  0.12809715  0.03876598  0.45750623    -0.81700
C85         C  0.14639064  0.10549010  0.45622271     0.99300
C86         C  0.15044826  0.04187331  0.45993197     1.05200
O87         O  0.16683402  0.10770418  0.44510288    -0.77300
C88         C  0.08292233  0.06714616  0.38335291     1.03500
Fe89       Fe  0.44296351  0.37278277  0.35969403     1.65800
Fe90       Fe  0.44886638  0.39142169  0.43030625     1.73200
Fe91       Fe  0.41625333  0.32740901  0.41445622     1.54400
O92         O  0.38758294  0.31862057  0.38357448    -0.81100
O93         O  0.46694944  0.37570955  0.45268413    -0.79400
O94         O  0.40476829  0.34877169  0.34911450    -0.83600
O95         O  0.45159490  0.34460257  0.35033650    -0.78400
O96         O  0.39326637  0.33321946  0.44454486    -0.80200
O97         O  0.48274518  0.41392718  0.40932547    -0.83000
C98         C  0.44731631  0.32386102  0.36229348     0.97800
C99         C  0.38583341  0.32851844  0.35971151     1.05200
O100        O  0.43589261  0.36368842  0.40139864    -1.11900
O101        O  0.43252065  0.40930781  0.40947672    -0.74400
O102        O  0.43465261  0.40212552  0.36258299    -0.77900
O103        O  0.43496680  0.31579237  0.38601790    -0.78600
C104        C  0.42940071  0.41284157  0.38302006     0.96700
O105        O  0.48228461  0.39757533  0.36624114    -0.76500
O106        O  0.41694135  0.37440116  0.45642997    -0.81700
C107        C  0.46377716  0.35343327  0.45636459     0.99300
C108        C  0.39673078  0.35270689  0.45895447     1.05200
O109        O  0.44464315  0.33314329  0.44564924    -0.77300
C110        C  0.49420569  0.41325965  0.38672981     1.03500
Fe111      Fe  0.37622250  0.43501344  0.63447489     1.65800
Fe112      Fe  0.39416844  0.44976232  0.56394561     1.73200
Fe113      Fe  0.32994845  0.41245491  0.58068450     1.54400
O114        O  0.32114938  0.38159170  0.60818747    -0.81100
O115        O  0.37475298  0.46397536  0.54094605    -0.79400
O116        O  0.34899666  0.39790236  0.64469987    -0.83600
O117        O  0.35154801  0.44833605  0.64475775    -0.78400
O118        O  0.33729137  0.39205652  0.54851859    -0.80200
O119        O  0.41285317  0.48465983  0.58567901    -0.83000
C120        C  0.33004165  0.44435232  0.63482427     0.97800
C121        C  0.32989706  0.37929861  0.63243165     1.05200
O122        O  0.36665611  0.43242842  0.59302254    -1.11900
O123        O  0.41750129  0.43836344  0.58365128    -0.74400
O124        O  0.40156649  0.42174083  0.62706740    -0.77900
O125        O  0.31942371  0.43057510  0.61225832    -0.78600
C126        C  0.41741182  0.42640041  0.60643785     0.96700
O127        O  0.40610200  0.47256829  0.63192762    -0.76500
O128        O  0.37940083  0.41651947  0.53925418    -0.81700
C129        C  0.35180497  0.45924468  0.53829563     0.99300
C130        C  0.35784186  0.39590814  0.53589135     1.05200
O131        O  0.33292995  0.44048280  0.55118450    -0.77300
C132        C  0.41820159  0.48931458  0.61246802     1.03500
Fe133      Fe  0.23059603  0.45664120  0.30561630     1.65800
Fe134      Fe  0.20533334  0.43413126  0.23924276     1.73200
Fe135      Fe  0.24859005  0.99765311  0.24585456     1.54400
O136        O  0.23480012  0.01306346  0.27689166    -0.81100
O137        O  0.23322832  0.44449560  0.20855873    -0.79400
O138        O  0.22210997  0.48449594  0.31596458    -0.83600
O139        O  0.26895016  0.48230268  0.30914667    -0.78400
O140        O  0.22056320  0.49542176  0.21920308    -0.80200
O141        O  0.21731525  0.41047304  0.25694069    -0.83000
C142        C  0.28583281  0.00050282  0.29413486     0.97800
C143        C  0.22440707  0.00585434  0.30196448     1.05200
O144        O  0.22863917  0.46317769  0.26380142    -1.11900
O145        O  0.17453406  0.42011115  0.26699313    -0.74400
O146        O  0.19205613  0.42935319  0.31071260    -0.77900
O147        O  0.28146508  0.00794927  0.27013973    -0.78600
C148        C  0.17260816  0.41768416  0.29432308     0.96700
O149        O  0.23950637  0.42831201  0.29751424    -0.76500
O150        O  0.19047811  0.45390511  0.21806569    -0.81700
C151        C  0.25417110  0.46385671  0.20017418     0.99300
C152        C  0.19901994  0.47705678  0.21041695     1.05200
O153        O  0.26413307  0.48569138  0.21277118    -0.77300
C154        C  0.23136648  0.41111333  0.27792818     1.03500
Fe155      Fe  0.12736307  0.39539236  0.08952586     1.65800
Fe156      Fe  0.10478941  0.39530229  0.02180521     1.73200
Fe157      Fe  0.08352590  0.41507196  0.08104708     1.54400
O158        O  0.06713062  0.38525028  0.11248657    -0.81100
O159        O  0.11128695  0.43160203  0.01272067    -0.79400
O160        O  0.09729130  0.37434863  0.11785231    -0.83600
O161        O  0.14048505  0.42855910  0.11334891    -0.78400
O162        O  0.05192066  0.39263110  0.05479851    -0.80200
O163        O  0.14419294  0.40997330  0.01881416    -0.83000
C164        C  0.13217922  0.44327972  0.12056454     0.97800
C165        C  0.07532423  0.37137278  0.12399380     1.05200
O166        O  0.10508412  0.40185364  0.06410770    -1.11900
O167        O  0.09903363  0.35842777  0.02655626    -0.74400
O168        O  0.11842921  0.36161927  0.06889323    -0.77900
O169        O  0.11114140  0.44038505  0.11079562    -0.78600
C170        C  0.10816038  0.34978465  0.04541550     0.96700
O171        O  0.15955784  0.41503599  0.06365619    -0.76500
O172        O  0.06548051  0.37916742  0.01749992    -0.81700
C173        C  0.10834753  0.44875257  0.02521307     0.99300
C174        C  0.04789693  0.38031244  0.03123766     1.05200
O175        O  0.09821565  0.44540309  0.05053685    -0.77300
C176        C  0.16280590  0.41654363  0.03630251     1.03500
Fe177      Fe  0.04452828  0.26943464  0.32212073     1.65800
Fe178      Fe  0.07778256  0.28971444  0.26087635     1.73200
Fe179      Fe  0.51397371  0.25173767  0.25637186     1.54400
O180        O  0.49998667  0.21730363  0.27818576    -0.81100
O181        O  0.06394572  0.30063722  0.22569037    -0.79400
O182        O  0.01305683  0.23226730  0.32437422    -0.83600
O183        O  0.02107876  0.28433213  0.32196390    -0.78400
O184        O  0.53109394  0.23875944  0.22462498    -0.80200
O185        O  0.08382763  0.32195036  0.28144274    -0.83000
C186        C  0.50080553  0.27698772  0.30846314     0.97800
C187        C  0.49839754  0.21302318  0.30540107     1.05200
O188        O  0.04494835  0.27016681  0.27973410    -1.11900
O189        O  0.09740451  0.28186399  0.29281616    -0.74400
O190        O  0.06795545  0.25372781  0.32326283    -0.77900
O191        O  0.49424096  0.26311245  0.28541810    -0.78600
C192        C  0.08963338  0.26335500  0.31078650     0.96700
O193        O  0.07571194  0.30731098  0.32677316    -0.76500
O194        O  0.07208199  0.25785909  0.23965445    -0.81700
C195        C  0.04293940  0.29928277  0.21843626     0.99300
C196        C  0.05421856  0.24282920  0.22271788     1.05200
O197        O  0.02194873  0.28458125  0.23163700    -0.77300
C198        C  0.08530106  0.32582686  0.30857322     1.03500
Fe199      Fe  0.10723404  0.20682251  0.01778369     1.65800
Fe200      Fe  0.13628687  0.23078828  0.08256049     1.73200
Fe201      Fe  0.08844338  0.16782605  0.07834740     1.54400
O202        O  0.05507118  0.15842871  0.05446812    -0.81100
O203        O  0.15121072  0.21031029  0.10148003    -0.79400
O204        O  0.06843209  0.18330115  0.01573166    -0.83600
O205        O  0.11334214  0.17699473  0.00837226    -0.78400
O206        O  0.07569662  0.18310980  0.11101326    -0.80200
O207        O  0.16583332  0.24401893  0.05224006    -0.83000
C208        C  0.11041768  0.15712957  0.02168426     0.97800
C209        C  0.05051907  0.16573430  0.03038871     1.05200
O210        O  0.11050191  0.20178891  0.05959252    -1.11900
O211        O  0.12444182  0.25476163  0.06610504    -0.74400
O212        O  0.10182778  0.23790906  0.02530171    -0.77900
O213        O  0.10059691  0.15078800  0.04721252    -0.78600
C214        C  0.11170850  0.25558617  0.04450571     0.96700
O215        O  0.14535695  0.23152027  0.01014619    -0.76500
O216        O  0.11039611  0.22212536  0.11608697    -0.81700
C217        C  0.14029619  0.18814929  0.11288072     0.99300
C218        C  0.08825658  0.20449409  0.12452420     1.05200
O219        O  0.11724599  0.17100322  0.10667835    -0.77300
C220        C  0.16554363  0.24480771  0.02473173     1.03500
Fe221      Fe  0.29197002  0.39597244  0.00388449     1.65800
Fe222      Fe  0.25780950  0.37253924  0.06653631     1.73200
Fe223      Fe  0.32321751  0.41056840  0.07074932     1.54400
O224        O  0.34136811  0.39678435  0.04363491    -0.81100
O225        O  0.26641099  0.39859361  0.09893914    -0.79400
O226        O  0.31980222  0.38583505  0.00141944    -0.83600
O227        O  0.31943866  0.43402816  0.00391389    -0.78400
O228        O  0.31215674  0.37854964  0.09835388    -0.80200
O229        O  0.24231476  0.39107411  0.04409239    -0.83000
C230        C  0.33602444  0.45034693  0.02106775     0.97800
C231        C  0.33787698  0.38797644  0.01773628     1.05200
O232        O  0.29116097  0.39306822  0.04702053    -1.11900
O233        O  0.24415350  0.34286012  0.03746783    -0.74400
O234        O  0.26478244  0.35788068  0.99565588    -0.77900
O235        O  0.33928400  0.44481500  0.04683066    -0.78600
C236        C  0.24802669  0.33985923  0.01118092     0.96700
O237        O  0.26441730  0.40731265  0.00292580    -0.76500
O238        O  0.27007758  0.35284977  0.09147715    -0.81700
C239        C  0.28532755  0.41889189  0.10889128     0.99300
C240        C  0.29103791  0.35768068  0.10341473     1.05200
O241        O  0.30821904  0.42675884  0.09991699    -0.77300
C242        C  0.24704643  0.40425228  0.02094721     1.03500
Fe243      Fe  0.20852157  0.26845402  0.23642482     1.65800
Fe244      Fe  0.23219083  0.27091943  0.30405086     1.73200
Fe245      Fe  0.25153545  0.24801436  0.24669285     1.54400
O246        O  0.22331509  0.22286051  0.21741866    -0.81100
O247        O  0.27038741  0.28369759  0.30933937    -0.79400
O248        O  0.19250312  0.23282316  0.21680872    -0.83600
O249        O  0.23692194  0.28510138  0.20532415    -0.78400
O250        O  0.23567666  0.21902053  0.27797473    -0.80200
O251        O  0.24178889  0.30826048  0.29535521    -0.83000
C252        C  0.25869879  0.28756967  0.19958156     0.97800
C253        C  0.20145530  0.21875871  0.20891471     1.05200
O254        O  0.23089784  0.26251889  0.26238070    -1.11900
O255        O  0.19389531  0.25982196  0.30777768    -0.74400
O256        O  0.17716305  0.25288579  0.26374620    -0.77900
O257        O  0.26828191  0.27641138  0.21427503    -0.78600
C258        C  0.17488928  0.25308263  0.29106315     0.96700
O259        O  0.22159977  0.30473426  0.25336222    -0.76500
O260        O  0.22263102  0.23415182  0.31501318    -0.81700
C261        C  0.28765796  0.28130896  0.29683685     0.99300
C262        C  0.22491498  0.21656457  0.30265672     1.05200
O263        O  0.28374547  0.26966545  0.27277813    -0.77300
C264        C  0.23454780  0.31770022  0.27530150     1.03500
Fe265      Fe  0.38971647  0.11682360  0.89936857     1.65800
Fe266      Fe  0.39454130  0.10297450  0.97020197     1.73200
Fe267      Fe  0.42146424  0.08463810  0.91570099     1.54400
O268        O  0.39362010  0.06199688  0.88438741    -0.81100
O269        O  0.43232371  0.11617449  0.98204242    -0.79400
O270        O  0.37396750  0.08402320  0.87374123    -0.83600
O271        O  0.42304356  0.13407106  0.87609091    -0.78400
O272        O  0.40212206  0.05355943  0.94399573    -0.80200
O273        O  0.40295437  0.14038801  0.96853015    -0.83000
C274        C  0.44155293  0.13036266  0.87147245     0.97800
C275        C  0.37650226  0.06444715  0.87078952     1.05200
O276        O  0.40210561  0.10156775  0.92846582    -1.11900
O277        O  0.35539487  0.08930784  0.96308873    -0.74400
O278        O  0.35438249  0.10192944  0.91814456    -0.77900
O279        O  0.44393743  0.11310830  0.88472724    -0.78600
C280        C  0.34313170  0.09110929  0.94155545     0.96700
O281        O  0.40338130  0.15091876  0.92201129    -0.76500
O282        O  0.38504993  0.06615735  0.97837479    -0.81700
C283        C  0.45124876  0.11532549  0.97108457     0.99300
C284        C  0.38879487  0.04936024  0.96690758     1.05200
O285        O  0.45027710  0.10489515  0.94659928    -0.77300
C286        C  0.40571812  0.15631288  0.94891455     1.03500
Fe287      Fe  0.46138044  0.22708078  0.69506611     1.65800
Fe288      Fe  0.44742346  0.22130256  0.76578273     1.73200
Fe289      Fe  0.00783066  0.25073523  0.74517970     1.54400
O290        O  0.01813795  0.23517296  0.71069998    -0.81100
O291        O  0.46308490  0.25764921  0.78158984    -0.79400
O292        O  0.48214758  0.20890254  0.68826509    -0.83600
O293        O  0.49208333  0.26245847  0.68201791    -0.78400
O294        O  0.00246416  0.21941381  0.76991603    -0.80200
O295        O  0.42229051  0.22827780  0.74266238    -0.83000
C296        C  0.00785595  0.28131294  0.69337900     0.97800
C297        C  0.00548364  0.21669283  0.69298152     1.05200
O298        O  0.47276955  0.23331030  0.73543325    -1.11900
O299        O  0.43027547  0.18462815  0.75050404    -0.74400
O300        O  0.42836444  0.19122631  0.70325919    -0.77900
O301        O  0.01438668  0.28161453  0.71977659    -0.78600
C302        C  0.41967463  0.17714789  0.72587106     0.96700
O303        O  0.43943434  0.24457829  0.69950498    -0.76500
O304        O  0.46867802  0.21215840  0.79377682    -0.81700
C305        C  0.48550142  0.27150875  0.79169178     0.99300
C306        C  0.48666873  0.20738981  0.78931883     1.05200
O307        O  0.00234642  0.26898000  0.78196418    -0.77300
C308        C  0.42284855  0.23975427  0.71929007     1.03500
Fe309      Fe  0.38978889  0.28867656  0.97248049     1.65800
Fe310      Fe  0.38460601  0.26758392  0.90283516     1.73200
Fe311      Fe  0.42187797  0.33176189  0.91636328     1.54400
O312        O  0.40511947  0.34727608  0.94341623    -0.81100
O313        O  0.41714475  0.28086104  0.87899471    -0.79400
O314        O  0.38157851  0.31735432  0.97632895    -0.83600
O315        O  0.42772024  0.31302147  0.98534039    -0.78400
O316        O  0.39561772  0.32796552  0.88371191    -0.80200
O317        O  0.39725245  0.24771213  0.92764801    -0.83000
C318        C  0.44843556  0.33062477  0.97377486     0.97800
C319        C  0.38999805  0.33941708  0.96529057     1.05200
O320        O  0.39880006  0.29612802  0.93063155    -1.11900
O321        O  0.34943448  0.24859306  0.92150123    -0.74400
O322        O  0.35036639  0.26332377  0.96565977    -0.77900
O323        O  0.44930158  0.33861716  0.94789210    -0.78600
C324        C  0.33819423  0.24854563  0.94456104     0.96700
O325        O  0.39714969  0.25886783  0.97392491    -0.76500
O326        O  0.37083100  0.28550947  0.87642268    -0.81700
C327        C  0.43857104  0.30109457  0.87572312     0.99300
C328        C  0.37665515  0.30858592  0.87148814     1.05200
O329        O  0.44341838  0.32207279  0.88787678    -0.77300
C330        C  0.40038985  0.24579459  0.95467437     1.03500
Fe331      Fe  0.20549554  0.09799176  0.96245921     1.65800
Fe332      Fe  0.22312954  0.10733441  0.89107336     1.73200
Fe333      Fe  0.15905546  0.07489340  0.90853416     1.54400
O334        O  0.14865747  0.04531107  0.93839568    -0.81100
O335        O  0.20589249  0.12299788  0.86664425    -0.79400
O336        O  0.17861176  0.06041665  0.97284271    -0.83600
O337        O  0.17995452  0.11023757  0.97223164    -0.78400
O338        O  0.16443783  0.05206866  0.87782284    -0.80200
O339        O  0.24325548  0.14222943  0.91114717    -0.83000
C340        C  0.15907910  0.10712317  0.96157751     0.97800
C341        C  0.15757241  0.04259699  0.96238936     1.05200
O342        O  0.19580413  0.09331188  0.92077409    -1.11900
O343        O  0.24466775  0.09478677  0.91185135    -0.74400
O344        O  0.23234787  0.08614502  0.95785171    -0.77900
O345        O  0.14933755  0.09444926  0.93830554    -0.78600
C346        C  0.24639886  0.08695654  0.93681387     0.96700
O347        O  0.23357502  0.13661188  0.95792324    -0.76500
O348        O  0.20652819  0.07355994  0.86798137    -0.81700
C349        C  0.18389913  0.12081681  0.86472303     0.99300
C350        C  0.18422352  0.05400310  0.86522449     1.05200
O351        O  0.16426370  0.10329014  0.87804084    -0.77300
C352        C  0.24601826  0.15105347  0.93666408     1.03500
Fe353      Fe  0.27180191  0.03864776  0.69786649     1.65800
Fe354      Fe  0.27891905  0.05345361  0.76889817     1.73200
Fe355      Fe  0.25009340  0.49305190  0.75030674     1.54400
O356        O  0.21882405  0.48456899  0.72342967    -0.81100
O357        O  0.28819277  0.03381518  0.79853686    -0.79400
O358        O  0.23587279  0.00845075  0.68526858    -0.83600
O359        O  0.28948341  0.01754429  0.68890121    -0.78400
O360        O  0.22935461  0.49754047  0.78466683    -0.80200
O361        O  0.31552748  0.06959786  0.75289934    -0.83000
C362        C  0.28320920  0.49580521  0.69628670     0.97800
C363        C  0.21700123  0.49292751  0.69859293     1.05200
O364        O  0.26646194  0.02749171  0.73857283    -1.11900
O365        O  0.27227580  0.07873204  0.74545460    -0.74400
O366        O  0.25464315  0.06085937  0.70319475    -0.77900
O367        O  0.26792632  0.48398720  0.71733997    -0.78600
C368        C  0.26028994  0.07796041  0.72247414     0.96700
O369        O  0.30818390  0.07118837  0.70571292    -0.76500
O370        O  0.24262592  0.03776772  0.78540748    -0.81700
C371        C  0.29303833  0.01591515  0.79531723     0.99300
C372        C  0.22587745  0.01464224  0.79140338     1.05200
O373        O  0.28051490  0.49803096  0.77720741    -0.77300
C374        C  0.32273861  0.07982985  0.72801293     1.03500
Fe375      Fe  0.28177042  0.21735839  0.76818671     1.65800
Fe376      Fe  0.27430387  0.22648629  0.69645218     1.73200
Fe377      Fe  0.25155496  0.25056078  0.74960633     1.54400
O378        O  0.22826619  0.22325835  0.78106287    -0.81100
O379        O  0.28667789  0.26427683  0.68573557    -0.79400
O380        O  0.24798751  0.20144416  0.79141441    -0.83600
O381        O  0.29899230  0.25112200  0.79141142    -0.78400
O382        O  0.22140082  0.23008904  0.72074316    -0.80200
O383        O  0.31284025  0.23690144  0.70186478    -0.83000
C384        C  0.29785866  0.27151540  0.79278106     0.97800
C385        C  0.22910694  0.20500738  0.79395643     1.05200
O386        O  0.26918961  0.23151376  0.73795692    -1.11900
O387        O  0.26226056  0.18748750  0.70132240    -0.74400
O388        O  0.26740120  0.18251080  0.74818226    -0.77900
O389        O  0.28075862  0.27409669  0.77935314    -0.78600
C390        C  0.26119458  0.17354865  0.72269964     0.96700
O391        O  0.31659300  0.23015339  0.74849396    -0.76500
O392        O  0.23686300  0.21598378  0.68590690    -0.81700
C393        C  0.28346504  0.28208024  0.69571024     0.99300
C394        C  0.21878851  0.21834338  0.69689750     1.05200
O395        O  0.27101349  0.27959246  0.71899064    -0.77300
C396        C  0.32613579  0.23672700  0.72329304     1.03500
C397        C  0.25388418  0.14594610  0.71850177    -0.04700
C398        C  0.24317427  0.12857626  0.74218187    -0.01900
C399        C  0.24405192  0.10570211  0.74278261     0.03100
C400        C  0.25370241  0.09857794  0.71875831    -0.04700
C401        C  0.26079587  0.11390820  0.69331223    -0.01800
C402        C  0.26142644  0.13777543  0.69335300     0.03100
C403        C  0.23255666  0.13471356  0.76714637     0.37800
C404        C  0.26967558  0.10634399  0.66796586     0.37800
C405        C  0.27186830  0.15462398  0.66830080     0.36200
C406        C  0.23690850  0.09077499  0.76949801     0.36200
N407        N  0.28028651  0.16799546  0.64826570    -0.38600
N408        N  0.23189782  0.08003661  0.79152992    -0.38600
N409        N  0.27670444  0.10028454  0.64769519    -0.38100
N410        N  0.22444349  0.13925567  0.78761694    -0.38100
C411        C  0.20721029  0.18589706  0.81220367    -0.04700
C412        C  0.18939559  0.16163701  0.80028366    -0.01900
C413        C  0.17718429  0.13958174  0.81849899     0.03100
C414        C  0.18303765  0.14184206  0.84841866    -0.04700
C415        C  0.19597080  0.16671856  0.86074676    -0.01800
C416        C  0.20824867  0.18871475  0.84264144     0.03100
C417        C  0.18514760  0.15915747  0.76911504     0.37800
C418        C  0.19822791  0.16946997  0.89210613     0.37800
C419        C  0.22346100  0.21397907  0.85536585     0.36200
C420        C  0.15868558  0.11481862  0.80655671     0.36200
N421        N  0.23536699  0.23399509  0.86604571    -0.38600
N422        N  0.14313313  0.09544729  0.79671866    -0.38600
N423        N  0.19990734  0.17166286  0.91713719    -0.38100
N424        N  0.18170525  0.15721923  0.74424438    -0.38100
C425        C  0.18246761  0.03289491  0.84663294    -0.04700
C426        C  0.17907593  0.03342434  0.81636984    -0.01900
C427        C  0.18938015  0.02257635  0.79726023     0.03100
C428        C  0.20323613  0.01129499  0.80839838    -0.04700
C429        C  0.20117727  0.00551997  0.83830237    -0.01800
C430        C  0.19138081  0.01683752  0.85759190     0.03100
C431        C  0.16700407  0.04697904  0.80471321     0.37800
C432        C  0.23075111  0.50956066  0.85806186     0.37800
C433        C  0.20454400  0.52692055  0.89473906     0.36200
C434        C  0.18782974  0.02502532  0.76603048     0.36200
N435        N  0.20840790  0.52893512  0.91953104    -0.38600
N436        N  0.18662805  0.02698235  0.74111780    -0.38600
N437        N  0.24595654  0.50591716  0.86888195    -0.38100
N438        N  0.15721356  0.05749191  0.79479636    -0.38100
C439        C  0.31007869  0.22894087  0.94596686    -0.04700
C440        C  0.29597770  0.22103205  0.91964966    -0.01900
C441        C  0.27423971  0.19626983  0.91701642     0.03100
C442        C  0.26531467  0.17919301  0.94123326    -0.04700
C443        C  0.27669157  0.18911052  0.96890078    -0.01800
C444        C  0.29896545  0.21394489  0.97117231     0.03100
C445        C  0.30487530  0.23750650  0.89409457     0.37800
C446        C  0.26683119  0.17350645  0.99495730     0.37800
C447        C  0.31109267  0.22340772  0.99923210     0.36200
C448        C  0.26274334  0.18821232  0.88832035     0.36200
N449        N  0.32062964  0.23105594  0.02167482    -0.38600
N450        N  0.25457618  0.18199916  0.86507021    -0.38600
N451        N  0.25908723  0.16120955  0.01588271    -0.38100
N452        N  0.31151707  0.24961585  0.87299260    -0.38100
C453        C  0.35979747  0.31194443  0.85040364    -0.04700
C454        C  0.33509327  0.30665889  0.85931175    -0.01900
C455        C  0.31463694  0.29746257  0.83889387     0.03100
C456        C  0.31882817  0.29302188  0.80989648    -0.04700
C457        C  0.34453931  0.30358051  0.80019615    -0.01800
C458        C  0.36502768  0.31293327  0.82045013     0.03100
C459        C  0.33024070  0.30833204  0.88987454     0.37800
C460        C  0.34963441  0.30308137  0.76952122     0.37800
C461        C  0.39107464  0.32146590  0.81078400     0.36200
C462        C  0.28925985  0.29181649  0.84777511     0.36200
N463        N  0.41188450  0.32835014  0.80306708    -0.38600
N464        N  0.26920946  0.28814699  0.85476750    -0.38600
N465        N  0.35392859  0.30272092  0.74508508    -0.38100
N466        N  0.32642390  0.30956722  0.91431031    -0.38100
C467        C  0.39493461  0.15218924  0.72487809    -0.04700
C468        C  0.37649992  0.14704866  0.74688062    -0.01900
C469        C  0.35331655  0.12337391  0.74775039     0.03100
C470        C  0.34779866  0.10444236  0.72629265    -0.04700
C471        C  0.36556943  0.10994403  0.70339946    -0.01800
C472        C  0.38912274  0.13382182  0.70267296     0.03100
C473        C  0.38062610  0.16669045  0.76807758     0.37800
C474        C  0.35995829  0.09086653  0.68105435     0.37800
C475        C  0.40740180  0.13930804  0.67934673     0.36200
C476        C  0.33467642  0.11912308  0.77040012     0.36200
N477        N  0.42193009  0.14375645  0.66062712    -0.38600
N478        N  0.31996830  0.11579430  0.78853878    -0.38600
N479        N  0.35546318  0.07564070  0.66321231    -0.38100
N480        N  0.38379737  0.18226838  0.78492650    -0.38100
C481        C  0.35366847  0.24340973  0.71927109    -0.04700
C482        C  0.36221768  0.23810310  0.69273001    -0.01900
C483        C  0.38620828  0.23899337  0.69144818     0.03100
C484        C  0.40249078  0.24667026  0.71602322    -0.04700
C485        C  0.39583460  0.25591656  0.74066365    -0.01800
C486        C  0.37110297  0.25269929  0.74317907     0.03100
C487        C  0.34563163  0.22948627  0.66734748     0.37800
C488        C  0.41418533  0.26795578  0.76427387     0.37800
C489        C  0.36334970  0.25672093  0.77165603     0.36200
C490        C  0.39318683  0.23019629  0.66556971     0.36200
N491        N  0.35738430  0.25898154  0.79488090    -0.38600
N492        N  0.39868791  0.22311069  0.64492067    -0.38600
N493        N  0.42844188  0.27783682  0.78328932    -0.38100
N494        N  0.33253773  0.22267588  0.64697389    -0.38100
C495        C  0.48689320  0.28682759  0.81762115    -0.04700
C496        C  0.48598267  0.30971018  0.81455238    -0.01900
C497        C  0.47306989  0.31644147  0.83568186     0.03100
C498        C  0.45811390  0.29851813  0.85772363    -0.04700
C499        C  0.45955994  0.27569593  0.86019510    -0.01800
C500        C  0.47685190  0.27224992  0.84304516     0.03100
C501        C  0.99350167  0.32451977  0.78720228     0.37800
C502        C  0.44001968  0.25311976  0.87544271     0.37800
C503        C  0.48049948  0.25058475  0.84860400     0.36200
C504        C  0.47247429  0.34001901  0.83234634     0.36200
N505        N  0.48330939  0.23333731  0.85346711    -0.38600
N506        N  0.97077141  0.35905739  0.82986884    -0.38600
N507        N  0.42375950  0.23414238  0.88538022    -0.38100
N508        N  0.00144053  0.33655186  0.76613165    -0.38100
C509        C  0.31474687  0.08142988  0.94296008    -0.04700
C510        C  0.30013990  0.07470177  0.91684717    -0.01900
C511        C  0.27583452  0.07268921  0.91622286     0.03100
C512        C  0.26672124  0.07980772  0.94085040    -0.04700
C513        C  0.27967925  0.08332143  0.96775025    -0.01800
C514        C  0.30277110  0.08248221  0.96898396     0.03100
C515        C  0.31043231  0.07142840  0.88965547     0.37800
C516        C  0.27087554  0.09012606  0.99375084     0.37800
C517        C  0.31424638  0.08330374  0.99697619     0.36200
C518        C  0.26119362  0.06484412  0.88924250     0.36200
N519        N  0.32291294  0.08328106  0.01944938    -0.38600
N520        N  0.25023634  0.05900308  0.86733531    -0.38600
N521        N  0.26416975  0.09593106  0.01448287    -0.38100
N522        N  0.31820729  0.06954863  0.86735852    -0.38100
C523        C  0.35703179  0.04321364  0.85194073    -0.04700
C524        C  0.36118735  0.04259318  0.82183272    -0.01900
C525        C  0.33984693  0.03041692  0.80255970     0.03100
C526        C  0.31436163  0.01757519  0.81358044    -0.04700
C527        C  0.31083250  0.01374221  0.84382141    -0.01800
C528        C  0.33199278  0.02681066  0.86293731     0.03100
C529        C  0.38726777  0.05443032  0.81084400     0.37800
C530        C  0.28532385  0.99690241  0.85535540     0.37800
C531        C  0.32765208  0.02457966  0.89399834     0.36200
C532        C  0.34627713  0.53579628  0.76976678     0.36200
N533        N  0.32373406  0.02254674  0.91871841    -0.38600
N534        N  0.34992550  0.54031569  0.74517367    -0.38600
N535        N  0.26527583  0.98298118  0.86516800    -0.38100
N536        N  0.40810981  0.06343588  0.80206446    -0.38100
C537        C  0.40940444  0.18145998  0.95804060    -0.04700
C538        C  0.42910927  0.20469698  0.94588846    -0.01900
C539        C  0.42907886  0.22768207  0.95087527     0.03100
C540        C  0.40738192  0.22666831  0.96357527    -0.04700
C541        C  0.38960879  0.20451226  0.97896574    -0.01800
C542        C  0.39120597  0.18206961  0.97707006     0.03100
C543        C  0.44830921  0.20489245  0.92680510     0.37800
C544        C  0.36888350  0.20426710  0.99527178     0.37800
C545        C  0.37275291  0.15920848  0.99283778     0.36200
C546        C  0.45098399  0.25241735  0.94278971     0.36200
N547        N  0.35818541  0.14118347  0.00581377    -0.38600
N548        N  0.46847659  0.27229200  0.93677778    -0.38600
N549        N  0.35232414  0.20377966  0.00855240    -0.38100
N550        N  0.46345475  0.20530887  0.91098876    -0.38100
C551        C  0.45937864  0.14608729  0.84767599    -0.04700
C552        C  0.44938311  0.14286283  0.81913797    -0.01900
C553        C  0.46372253  0.16086039  0.79741733     0.03100
C554        C  0.48461901  0.18496642  0.80521729    -0.04700
C555        C  0.49612121  0.18764769  0.83270284    -0.01800
C556        C  0.48407535  0.16752010  0.85354942     0.03100
C557        C  0.42279090  0.12372666  0.81288402     0.37800
C558        C  0.01758973  0.21309385  0.84005906     0.37800
C559        C  0.49616583  0.16966025  0.88139358     0.36200
C560        C  0.45633556  0.15519960  0.76713834     0.36200
N561        N  0.00384402  0.17563387  0.90564191    -0.38600
N562        N  0.45097707  0.15025039  0.74288654    -0.38600
N563        N  0.03598102  0.23245769  0.84544746    -0.38100
N564        N  0.40127390  0.10971164  0.80771816    -0.38100
C565        C  0.35125222  0.47705539  0.00979901    -0.04700
C566        C  0.33810641  0.48990256  0.00169779    -0.01900
C567        C  0.34924247  0.01236597  0.98817761     0.03100
C568        C  0.37553988  0.02349785  0.98061268    -0.04700
C569        C  0.38840313  0.00976646  0.98642460    -0.01800
C570        C  0.37754652  0.48798034  0.00232078     0.03100
C571        C  0.31043744  0.47757313  0.00534446     0.37800
C572        C  0.41486465  0.02005791  0.97714510     0.37800
C573        C  0.39094575  0.47436441  0.00952991     0.36200
C574        C  0.33530550  0.02593236  0.98365843     0.36200
N575        N  0.40159029  0.46345953  0.01533588    -0.38600
N576        N  0.32346349  0.03604450  0.98074840    -0.38600
N577        N  0.43590224  0.02810108  0.96947117    -0.38100
N578        N  0.28830364  0.46818193  0.00670094    -0.38100
C579        C  0.35537265  0.37946744  0.00548252    -0.04700
C580        C  0.36235975  0.38363681  0.97562828    -0.01900
C581        C  0.37508355  0.37191086  0.96257568     0.03100
C582        C  0.38129369  0.35611460  0.97930132    -0.04700
C583        C  0.37715051  0.35460770  0.00985341    -0.01800
C584        C  0.36401535  0.36591620  0.02279455     0.03100
C585        C  0.35659664  0.40018679  0.95813989     0.37800
C586        C  0.38643254  0.34137966  0.02828489     0.37800
C587        C  0.35853600  0.36250238  0.05375331     0.36200
C588        C  0.38086214  0.37547569  0.93172223     0.36200
N589        N  0.35433122  0.35977578  0.07847424    -0.38600
N590        N  0.38558557  0.37847612  0.90712652    -0.38600
N591        N  0.39376133  0.33079603  0.04295622    -0.38100
N592        N  0.35198396  0.41336946  0.94422755    -0.38100
C593        C  0.28922418  0.33806716  0.12517545    -0.04700
C594        C  0.30309155  0.34532457  0.15178920    -0.01900
C595        C  0.29472300  0.32785853  0.17569736     0.03100
C596        C  0.27212270  0.30337711  0.17340153    -0.04700
C597        C  0.25936166  0.29581645  0.14634914    -0.01800
C598        C  0.26901971  0.31221941  0.12209733     0.03100
C599        C  0.32467835  0.37122816  0.15548799     0.37800
C600        C  0.23411499  0.27279879  0.14406538     0.37800
C601        C  0.25660666  0.30260231  0.09424983     0.36200
C602        C  0.30712295  0.33653586  0.20375238     0.36200
N603        N  0.24605135  0.29442254  0.07249332    -0.38600
N604        N  0.31676808  0.34388776  0.22618858    -0.38600
N605        N  0.21338250  0.25545877  0.14171483    -0.38100
N606        N  0.34196814  0.39191194  0.15851176    -0.38100
C607        C  0.02362217  0.15342777  0.01790287    -0.04700
C608        C  0.01685202  0.16735344  0.99812783    -0.01900
C609        C  0.49345505  0.15407047  0.98387830     0.03100
C610        C  0.47583980  0.12770044  0.98761517    -0.04700
C611        C  0.48145691  0.11353789  0.00773349    -0.01800
C612        C  0.00483550  0.12735494  0.02397201     0.03100
C613        C  0.03543715  0.19335191  0.98882828     0.37800
C614        C  0.46200277  0.08717923  0.01435879     0.37800
C615        C  0.01060433  0.11220468  0.04377673     0.36200
C616        C  0.48606021  0.16955366  0.96694167     0.36200
N617        N  0.01513506  0.10002302  0.05954734    -0.38600
N618        N  0.48013287  0.18219225  0.95403145    -0.38600
N619        N  0.44635536  0.06632803  0.02025971    -0.38100
N620        N  0.05016675  0.21372133  0.98033581    -0.38100
C621        C  0.14547207  0.11875165  0.97714892    -0.04700
C622        C  0.13181902  0.12827310  0.96132755    -0.01900
C623        C  0.11921543  0.13941638  0.97595903     0.03100
C624        C  0.12026584  0.14167551  0.00672220    -0.04700
C625        C  0.13349368  0.13172945  0.02259515    -0.01800
C626        C  0.14608365  0.12054798  0.00796712     0.03100
C627        C  0.13168905  0.12792403  0.92974978     0.37800
C628        C  0.13524974  0.13383721  0.05406546     0.37800
C629        C  0.15995321  0.11123403  0.02513736     0.36200
C630        C  0.10512683  0.14860712  0.95893444     0.36200
N631        N  0.17122309  0.10430232  0.03917758    -0.38600
N632        N  0.09409549  0.15605005  0.94524607    -0.38600
N633        N  0.13671610  0.13526262  0.07917329    -0.38100
N634        N  0.13154298  0.12772310  0.90456955    -0.38100
C635        C  0.23098955  0.31416600  0.99875483    -0.04700
C636        C  0.20651308  0.30842687  0.98902159    -0.01900
C637        C  0.18515425  0.28370039  0.99338426     0.03100
C638        C  0.18826315  0.26525883  0.00916422    -0.04700
C639        C  0.21332341  0.26953185  0.01357789    -0.01800
C640        C  0.23485408  0.29386961  0.00689306     0.03100
C641        C  0.20260371  0.32849691  0.97747072     0.37800
C642        C  0.21693272  0.24937666  0.02551565     0.37800
C643        C  0.26092195  0.29868194  0.00973662     0.36200
C644        C  0.15973836  0.27855782  0.98470003     0.36200
N645        N  0.28177133  0.30254082  0.01162630    -0.38600
N646        N  0.13961055  0.27466962  0.97762269    -0.38600
N647        N  0.22020960  0.23344263  0.03488258    -0.38100
N648        N  0.19832404  0.34373427  0.96811628    -0.38100
C649        C  0.15453503  0.18392338  0.13680916    -0.04700
C650        C  0.14342483  0.17708376  0.16483799    -0.01900
C651        C  0.15948219  0.18322581  0.18946490     0.03100
C652        C  0.18643195  0.19866728  0.18653688    -0.04700
C653        C  0.19724648  0.20053302  0.15876653    -0.01800
C654        C  0.18113994  0.19276925  0.13389192     0.03100
C655        C  0.11597796  0.16653891  0.16886623     0.37800
C656        C  0.22495961  0.21266869  0.15549570     0.37800
C657        C  0.19196285  0.19477024  0.10526452     0.36200
C658        C  0.14839819  0.17246641  0.21749321     0.36200
N659        N  0.20054035  0.19582249  0.08247637    -0.38600
N660        N  0.13885342  0.16228852  0.23911944    -0.38600
N661        N  0.24711158  0.22260285  0.15285213    -0.38100
N662        N  0.09413404  0.15847029  0.17225715    -0.38100
C663        C  0.10615926  0.25207141  0.31490629    -0.04700
C664        C  0.12727106  0.26333981  0.33398896    -0.01900
C665        C  0.14862188  0.26013481  0.32907075     0.03100
C666        C  0.14957379  0.24739064  0.30351038    -0.04700
C667        C  0.12647199  0.23252743  0.28763723    -0.01800
C668        C  0.10457675  0.23423407  0.29419881     0.03100
C669        C  0.12721981  0.27851830  0.35830826     0.37800
C670        C  0.12521125  0.21635093  0.26367214     0.37800
C671        C  0.08068519  0.21845291  0.27873244     0.36200
C672        C  0.16955782  0.27062237  0.34994002     0.36200
N673        N  0.06164033  0.20538365  0.26651232    -0.38600
N674        N  0.18587691  0.27849532  0.36709078    -0.38600
N675        N  0.12373048  0.20353635  0.24422674    -0.38100
N676        N  0.12745328  0.29036264  0.37817553    -0.38100
C677        C  0.07784378  0.21008154  0.15166726    -0.04700
C678        C  0.09538050  0.22525773  0.17371517    -0.01900
C679        C  0.08782815  0.23586709  0.19627991     0.03100
C680        C  0.06150240  0.22952378  0.19940422    -0.04700
C681        C  0.04339058  0.21194452  0.17887995    -0.01800
C682        C  0.05162107  0.20289117  0.15488135     0.03100
C683        C  0.12187382  0.23057313  0.17316211     0.37800
C684        C  0.51387190  0.19855214  0.18449412     0.37800
C685        C  0.03321056  0.18721361  0.13269653     0.36200
C686        C  0.10836774  0.25470587  0.21479283     0.36200
N687        N  0.51610043  0.17172500  0.11600393    -0.38600
N688        N  0.12499929  0.26995010  0.22900383    -0.38600
N689        N  0.49208854  0.19096945  0.18761051    -0.38100
N690        N  0.14300663  0.23509657  0.17279611    -0.38100
C691        C  0.47272038  0.34276239  0.99142082    -0.04700
C692        C  0.47909755  0.32773764  0.00960690    -0.01900
C693        C  0.00423938  0.34141559  0.02192855     0.03100
C694        C  0.02183478  0.36791448  0.01803290    -0.04700
C695        C  0.01510327  0.38258654  0.00008359    -0.01800
C696        C  0.48964653  0.36977782  0.99045794     0.03100
C697        C  0.46216276  0.30004824  0.01139199     0.37800
C698        C  0.03307376  0.40991110  0.99616171     0.37800
C699        C  0.48197029  0.38607036  0.97550567     0.36200
C700        C  0.01027646  0.32681391  0.04228030     0.36200
N701        N  0.47560630  0.39897422  0.96382351    -0.38600
N702        N  0.01490391  0.31532067  0.05897570    -0.38600
N703        N  0.04730933  0.43170122  0.99296913    -0.38100
N704        N  0.44877782  0.27794611  0.01286663    -0.38100
C705        C  0.11832966  0.47393603  0.00921340    -0.04700
C706        C  0.11796680  0.47435963  0.97827610    -0.01900
C707        C  0.13139325  0.49785169  0.96276738     0.03100
C708        C  0.14266376  0.01779341  0.97929693    -0.04700
C709        C  0.14532331  0.01729203  0.01008399    -0.01800
C710        C  0.13079926  0.49776586  0.02416954     0.03100
C711        C  0.10340760  0.45060098  0.96200414     0.37800
C712        C  0.16295804  0.04038641  0.02604016     0.37800
C713        C  0.13029146  0.49835258  0.05569897     0.36200
C714        C  0.13194910  0.49737095  0.93119388     0.36200
N715        N  0.12971983  0.49898339  0.08082491    -0.38600
N716        N  0.13237754  0.49695215  0.90604793    -0.38600
N717        N  0.17732210  0.05841238  0.03912502    -0.38100
N718        N  0.09181400  0.43175298  0.94886536    -0.38100
C719        C  0.11040003  0.27947301  0.04117878    -0.04700
C720        C  0.08699034  0.27882935  0.03543847    -0.01900
C721        C  0.08651863  0.30205863  0.03342484     0.03100
C722        C  0.10890178  0.32580502  0.03995755    -0.04700
C723        C  0.13244348  0.32642873  0.04451149    -0.01800
C724        C  0.13327472  0.30357055  0.04487777     0.03100
C725        C  0.06295366  0.25442574  0.03496153     0.37800
C726        C  0.15621385  0.35076944  0.04878335     0.37800
C727        C  0.15788961  0.30511274  0.04991263     0.36200
C728        C  0.06285303  0.30130012  0.02552406     0.36200
N729        N  0.17755219  0.30661739  0.05431981    -0.38600
N730        N  0.04391759  0.30037648  0.01858574    -0.38600
N731        N  0.17535209  0.36988678  0.05240595    -0.38100
N732        N  0.04352219  0.23516918  0.03550737    -0.38100
C733        C  0.04366264  0.31414696  0.19198909    -0.04700
C734        C  0.03830618  0.33446941  0.19266722    -0.01900
C735        C  0.04646642  0.35258875  0.16932612     0.03100
C736        C  0.05927689  0.34984486  0.14496181    -0.04700
C737        C  0.05964581  0.32666958  0.14233149    -0.01800
C738        C  0.05278539  0.30948799  0.16585634     0.03100
C739        C  0.02448575  0.33674297  0.21712424     0.37800
C740        C  0.06647611  0.31987584  0.11498498     0.37800
C741        C  0.56334400  0.28638326  0.16459798     0.36200
C742        C  0.04164228  0.37376192  0.17044762     0.36200
N743        N  0.56493325  0.26824172  0.16108949    -0.38600
N744        N  0.03722021  0.39033624  0.17124154    -0.38600
N745        N  0.07126203  0.31343566  0.09343302    -0.38100
N746        N  0.01290932  0.33840639  0.23620999    -0.38100
C747        C  0.18889882  0.42345370  0.02484791    -0.04700
C748        C  0.21081718  0.43662309  0.04296005    -0.01900
C749        C  0.23209523  0.43327729  0.03901001     0.03100
C750        C  0.23190685  0.41726775  0.01668298    -0.04700
C751        C  0.21357510  0.41006792  0.99434449    -0.01800
C752        C  0.19159270  0.41250646  0.99860184     0.03100
C753        C  0.21147821  0.45299044  0.06629600     0.37800
C754        C  0.21774948  0.40098530  0.96695920     0.37800
C755        C  0.17140596  0.40226695  0.97680573     0.36200
C756        C  0.25452424  0.44664263  0.05763056     0.36200
N757        N  0.15533879  0.39408593  0.95933318    -0.38600
N758        N  0.27276368  0.45799685  0.07184037    -0.38600
N759        N  0.22144214  0.39464920  0.94461390    -0.38100
N760        N  0.21293059  0.46631316  0.08513388    -0.38100
C761        C  0.23801602  0.39049150  0.27905609    -0.04700
C762        C  0.23576053  0.37705888  0.30516121    -0.01900
C763        C  0.23686186  0.35421070  0.30453258     0.03100
C764        C  0.24016937  0.34464923  0.27778316    -0.04700
C765        C  0.24578895  0.35990968  0.25251866    -0.01800
C766        C  0.24447720  0.38252833  0.25307965     0.03100
C767        C  0.23092411  0.38573696  0.33253051     0.37800
C768        C  0.25289258  0.35242083  0.22568961     0.37800
C769        C  0.24947072  0.39725320  0.22647513     0.36200
C770        C  0.23350500  0.34016169  0.33136650     0.36200
N771        N  0.25340773  0.40832936  0.20476958    -0.38600
N772        N  0.23121558  0.32928969  0.35293512    -0.38600
N773        N  0.25859026  0.34687667  0.20404771    -0.38100
N774        N  0.22731819  0.39243472  0.35467726    -0.38100
C775        C  0.26556742  0.45934799  0.17356700    -0.04700
C776        C  0.29071056  0.46306343  0.17308473    -0.01900
C777        C  0.29763027  0.45047875  0.15178056     0.03100
C778        C  0.27925180  0.43370346  0.13099978    -0.04700
C779        C  0.25409180  0.43064120  0.13169635    -0.01800
C780        C  0.24821662  0.44480766  0.15122831     0.03100
C781        C  0.30768061  0.97840298  0.19413424     0.37800
C782        C  0.23299816  0.41170466  0.11391824     0.37800
C783        C  0.22318237  0.44303325  0.14943882     0.36200
C784        C  0.32275097  0.45275110  0.15339961     0.36200
N785        N  0.20314518  0.44126909  0.14806977    -0.38600
N786        N  0.34183699  0.95563143  0.15203457    -0.38600
N787        N  0.21574524  0.39637251  0.10052051    -0.38100
N788        N  0.32202652  0.99018033  0.21247078    -0.38100
C789        C  0.10061924  0.35308729  0.31779115    -0.04700
C790        C  0.10058907  0.37148357  0.29907492    -0.01900
C791        C  0.12394755  0.39366517  0.29193321     0.03100
C792        C  0.14679049  0.39933829  0.30703374    -0.04700
C793        C  0.14443765  0.38456228  0.33224797    -0.01800
C794        C  0.12128929  0.36103642  0.33723632     0.03100
C795        C  0.07673371  0.36628941  0.28539997     0.37800
C796        C  0.16583313  0.39235628  0.35208287     0.37800
C797        C  0.11886523  0.34487368  0.36174244     0.36200
C798        C  0.12426513  0.40886467  0.26736621     0.36200
N799        N  0.11670568  0.33231860  0.38179704    -0.38600
N800        N  0.12370024  0.41995977  0.24712614    -0.38600
N801        N  0.18261247  0.39858237  0.36839669    -0.38100
N802        N  0.05768009  0.36252686  0.27488386    -0.38100
C803        C  0.18336118  0.48160089  0.18863393    -0.04700
C804        C  0.15700596  0.47193648  0.19414425    -0.01900
C805        C  0.13899801  0.46184803  0.17107695     0.03100
C806        C  0.14788352  0.46365814  0.14230313    -0.04700
C807        C  0.17428619  0.48052611  0.13672121    -0.01800
C808        C  0.19230438  0.48863119  0.15979469     0.03100
C809        C  0.14898841  0.47350844  0.22332687     0.37800
C810        C  0.18233511  0.48988959  0.10738180     0.37800
C811        C  0.21837835  0.99911404  0.15392896     0.36200
C812        C  0.11165933  0.44905971  0.17700934     0.36200
N813        N  0.24027759  0.00949798  0.14912632    -0.38600
N814        N  0.08982167  0.43917709  0.18192679    -0.38600
N815        N  0.18803864  0.99437679  0.08384279    -0.38100
N816        N  0.14287123  0.47570041  0.24648711    -0.38100
C817        C  0.31760849  0.35394342  0.64751075    -0.04700
C818        C  0.33261114  0.34298704  0.65587673    -0.01900
C819        C  0.32116637  0.31909095  0.67045350     0.03100
C820        C  0.29510665  0.30692991  0.67935044    -0.04700
C821        C  0.28039191  0.31852944  0.67210738    -0.01800
C822        C  0.29138372  0.34148793  0.65552804     0.03100
C823        C  0.36012494  0.35648383  0.65037808     0.37800
C824        C  0.25384995  0.30700388  0.68140303     0.37800
C825        C  0.27601826  0.35301729  0.64796959     0.36200
C826        C  0.33656723  0.30731755  0.67661089     0.36200
N827        N  0.26383120  0.36226922  0.64193451    -0.38600
N828        N  0.34890272  0.29790198  0.68093119    -0.38600
N829        N  0.23269817  0.29857528  0.68871026    -0.38100
N830        N  0.38220294  0.36695562  0.64694747    -0.38100
C831        C  0.31704925  0.45665441  0.65043601    -0.04700
C832        C  0.30525544  0.46827629  0.63481968    -0.01900
C833        C  0.29466655  0.48138601  0.64967877     0.03100
C834        C  0.29506668  0.48258478  0.68044469    -0.04700
C835        C  0.30636789  0.47054288  0.69607731    -0.01800
C836        C  0.31733989  0.45782197  0.68126744     0.03100
C837        C  0.30427486  0.46724620  0.60330070     0.37800
C838        C  0.30745963  0.47175417  0.72760308     0.37800
C839        C  0.32843870  0.44541579  0.69810833     0.36200
C840        C  0.28286624  0.49321593  0.63310137     0.36200
N841        N  0.33734417  0.43563397  0.71163744    -0.38600
N842        N  0.29051285  0.01648697  0.62097985    -0.38600
N843        N  0.30843933  0.47248883  0.75273671    -0.38100
N844        N  0.30320374  0.46636034  0.57817026    -0.38100
C845        C  0.36067952  0.31587508  0.34326831    -0.04700
C846        C  0.33696710  0.30033001  0.35799745    -0.01900
C847        C  0.31342440  0.28865944  0.34260050     0.03100
C848        C  0.31295879  0.29203683  0.31212881    -0.04700
C849        C  0.33647290  0.30639367  0.29712054    -0.01800
C850        C  0.36006556  0.31895695  0.31254040     0.03100
C851        C  0.33626247  0.29666473  0.38929886     0.37800
C852        C  0.33657871  0.30819075  0.26563943     0.37800
C853        C  0.38347227  0.33526843  0.29624010     0.32600
C854        C  0.28959466  0.27231775  0.35829906     0.36200
N855        N  0.40186597  0.34861616  0.28297399    -0.38600
N856        N  0.27067689  0.25930635  0.37089881    -0.38600
N857        N  0.33691508  0.30921055  0.24050675    -0.38100
N858        N  0.33552679  0.29354097  0.41420104    -0.38100
C859        C  0.48362083  0.28538674  0.32182883    -0.04700
C860        C  0.46939742  0.29330675  0.30464896    -0.01900
C861        C  0.45707234  0.30544578  0.31779627     0.03100
C862        C  0.45799956  0.30888856  0.34838720    -0.04700
C863        C  0.47006045  0.29864902  0.36571650    -0.01800
C864        C  0.48297383  0.28727101  0.35260709     0.03100
C865        C  0.46761842  0.28933537  0.27343737     0.37800
C866        C  0.47011124  0.30051818  0.39722321     0.37800
C867        C  0.99477468  0.27580895  0.37219075     0.36200
C868        C  0.44310788  0.31398047  0.29965439     0.36200
N869        N  0.00525465  0.26819798  0.38662517    -0.38600
N870        N  0.43207073  0.32066318  0.28481796    -0.38600
N871        N  0.97075760  0.30057846  0.42432480    -0.38100
N872        N  0.46581749  0.28578408  0.24859407    -0.38100
C873        C  0.35802068  0.37530290  0.51774882    -0.04700
C874        C  0.35079835  0.37186789  0.48814971    -0.01900
C875        C  0.35957326  0.35936044  0.46909617     0.03100
C876        C  0.37679801  0.35162617  0.47923681    -0.04700
C877        C  0.38045361  0.35135546  0.50947826    -0.01800
C878        C  0.37049518  0.36250670  0.52867190     0.03100
C879        C  0.33610100  0.38283857  0.47675478     0.37800
C880        C  0.39587206  0.34112028  0.52079776     0.37800
C881        C  0.37432072  0.36198471  0.55966040     0.36200
C882        C  0.35304395  0.35679823  0.43844486     0.36200
N883        N  0.37739271  0.36120521  0.58435288    -0.38600
N884        N  0.34789873  0.35488278  0.41397717    -0.38600
N885        N  0.40802301  0.33297346  0.53046557    -0.38100
N886        N  0.32435746  0.39145305  0.46711749    -0.38100
C887        C  0.18689650  0.14274482  0.34535940    -0.04700
C888        C  0.21391074  0.15983425  0.34913713    -0.01900
C889        C  0.22667195  0.18347167  0.33395794     0.03100
C890        C  0.21241402  0.19125869  0.31702329    -0.04700
C891        C  0.18558425  0.17520717  0.31443677    -0.01800
C892        C  0.17317434  0.15035540  0.32653857     0.03100
C893        C  0.22903931  0.15333449  0.36811384     0.37800
C894        C  0.17059166  0.18483722  0.30028553     0.37800
C895        C  0.14662756  0.13271182  0.31829205     0.36200
C896        C  0.25444024  0.20005122  0.33611343     0.36200
N897        N  0.12581908  0.11850940  0.31059196    -0.38600
N898        N  0.27660434  0.21316866  0.33762905    -0.38600
N899        N  0.15885847  0.19314332  0.28985288    -0.38100
N900        N  0.24130416  0.14861747  0.38353408    -0.38100
C901        C  0.18819672  0.04249735  0.34595589    -0.04700
C902        C  0.17329228  0.01780339  0.33320072    -0.01900
C903        C  0.18543477  0.00634777  0.31860910     0.03100
C904        C  0.21248899  0.01943842  0.31584281    -0.04700
C905        C  0.22748029  0.04410371  0.32811847    -0.01800
C906        C  0.21540845  0.05565793  0.34308677     0.03100
C907        C  0.14791504  0.49946419  0.34731414     0.37800
C908        C  0.25534818  0.05712916  0.32652151     0.37800
C909        C  0.23108939  0.08136210  0.35477661     0.36200
C910        C  0.17116130  0.47872910  0.31249357     0.36200
N911        N  0.24379176  0.10189089  0.36402308    -0.38600
N912        N  0.15800690  0.45834428  0.30321040    -0.38600
N913        N  0.27762160  0.06766307  0.32568810    -0.38100
N914        N  0.12615822  0.48656731  0.35231860    -0.38100
C915        C  0.01930856  0.43096492  0.38531240    -0.04700
C916        C  0.02866656  0.44475275  0.35881637    -0.01900
C917        C  0.05314454  0.46766227  0.35779416     0.03100
C918        C  0.06887242  0.47649077  0.38300042    -0.04700
C919        C  0.06119642  0.46019157  0.40771170    -0.01800
C920        C  0.03613024  0.43877278  0.40963033     0.03100
C921        C  0.01210337  0.43725263  0.33340621     0.37800
C922        C  0.07811852  0.46655201  0.43271004     0.37800
C923        C  0.02708483  0.42707909  0.43806565     0.36200
C924        C  0.06087823  0.48308243  0.33147585     0.36200
N925        N  0.01995271  0.41906522  0.46120966    -0.38600
N926        N  0.06668125  0.99792556  0.31016401    -0.38600
N927        N  0.09077013  0.47124332  0.45328088    -0.38100
N928        N  0.51143037  0.42655688  0.30927761    -0.38100
C929        C  0.04157181  0.35185982  0.64472313    -0.04700
C930        C  0.05565194  0.33913845  0.64929081    -0.01900
C931        C  0.04448919  0.31583418  0.66503761     0.03100
C932        C  0.01966999  0.30562536  0.67703296    -0.04700
C933        C  0.00560127  0.31819129  0.67265874    -0.01800
C934        C  0.01627609  0.34097818  0.65618298     0.03100
C935        C  0.08208437  0.35059288  0.63929801     0.37800
C936        C  0.98035573  0.30810755  0.68584923     0.37800
C937        C  0.00090212  0.35296798  0.65101840     0.36200
C938        C  0.05849070  0.30228650  0.66897979     0.36200
N939        N  0.98845383  0.36231522  0.64707298    -0.38600
N940        N  0.56925365  0.29207205  0.66889195    -0.38600
N941        N  0.96034117  0.30053362  0.69644976    -0.38100
N942        N  0.10324065  0.35978428  0.63152506    -0.38100
C943        C  0.14360298  0.45460807  0.65064346    -0.04700
C944        C  0.16693327  0.47152671  0.63628979    -0.01900
C945        C  0.19040910  0.48469860  0.65191454     0.03100
C946        C  0.19150799  0.47985897  0.68217308    -0.04700
C947        C  0.16786851  0.46247031  0.69636947    -0.01800
C948        C  0.14425156  0.45031621  0.68080180     0.03100
C949        C  0.16695197  0.47579855  0.60520154     0.37800
C950        C  0.16722027  0.45729444  0.72728066     0.37800
C951        C  0.12051846  0.43267080  0.69591499     0.36200
C952        C  0.21310560  0.50373953  0.63622356     0.36200
N953        N  0.10160904  0.41866905  0.70795668    -0.38600
N954        N  0.23085708  0.51917777  0.62351674    -0.38600
N955        N  0.16515668  0.96112275  0.75162184    -0.38100
N956        N  0.16736831  0.47906101  0.58034707    -0.38100
C957        C  0.48380587  0.41687528  0.60942095    -0.04700
C958        C  0.46888163  0.41085170  0.58365331    -0.01900
C959        C  0.44686340  0.41329622  0.58273080     0.03100
C960        C  0.43733706  0.41848663  0.60847809    -0.04700
C961        C  0.44893500  0.41845085  0.63534742    -0.01800
C962        C  0.47280453  0.41907095  0.63571722     0.03100
C963        C  0.47640610  0.40285082  0.55745244     0.37800
C964        C  0.43695522  0.41845039  0.66267315     0.37800
C965        C  0.98387952  0.41581227  0.66174781     0.36200
C966        C  0.43507353  0.41162965  0.55460240     0.36200
N967        N  0.99378105  0.41713974  0.68379104    -0.38600
N968        N  0.42659495  0.41094230  0.53180088    -0.38600
N969        N  0.42727577  0.41788580  0.68461999    -0.38100
N970        N  0.48200362  0.39655420  0.53626794    -0.38100
C971        C  0.13248487  0.48207079  0.52368558    -0.04700
C972        C  0.14434277  0.00803140  0.53048421    -0.01900
C973        C  0.15357533  0.02890882  0.51084114     0.03100
C974        C  0.15328187  0.02450682  0.48071833    -0.04700
C975        C  0.14753192  0.49882030  0.47478462    -0.01800
C976        C  0.13783755  0.47818642  0.49495676     0.03100
C977        C  0.14448272  0.01225008  0.56154953     0.37800
C978        C  0.15011282  0.49431657  0.44434914     0.37800
C979        C  0.13203114  0.45282475  0.48591329     0.36200
C980        C  0.16138378  0.05444668  0.52140817     0.36200
N981        N  0.12795920  0.43268201  0.47886180    -0.38600
N982        N  0.16745679  0.07471107  0.53019758    -0.38600
N983        N  0.15195396  0.49069687  0.42000795    -0.38100
N984        N  0.14464577  0.01551485  0.58635728    -0.38100
C985        C  0.02471827  0.37241447  0.51403490    -0.04700
C986        C  0.50164399  0.35725437  0.52249234    -0.01900
C987        C  0.48096058  0.34491951  0.50244152     0.03100
C988        C  0.48468713  0.35274434  0.47313992    -0.04700
C989        C  0.00607276  0.36168908  0.46517965    -0.01800
C990        C  0.02786139  0.37435284  0.48358459     0.03100
C991        C  0.49736884  0.35078575  0.55312725     0.37800
C992        C  0.00911904  0.36473164  0.43385227     0.37800
C993        C  0.05305195  0.39122446  0.47117375     0.36200
C994        C  0.45602870  0.32421802  0.51164257     0.36200
N995        N  0.07294540  0.40475145  0.46073188    -0.38600
N996        N  0.43634611  0.30697808  0.51870689    -0.38600
N997        N  0.01135535  0.36709283  0.40886594    -0.38100
N998        N  0.49403005  0.34559560  0.57758674    -0.38100
C999        C  0.14813477  0.18671385  0.64652356    -0.04700
C1000       C  0.15604549  0.20894430  0.66335895    -0.01900
C1001       C  0.17840723  0.21875678  0.68085485     0.03100
C1002       C  0.19371423  0.20691688  0.68071540    -0.04700
C1003       C  0.18498535  0.18395925  0.66447890    -0.01800
C1004       C  0.16215415  0.17378270  0.64797335     0.03100
C1005       C  0.14010678  0.22066790  0.66412540     0.37800
C1006       C  0.19822789  0.16946187  0.66635518     0.37800
C1007       C  0.15209885  0.14889515  0.63406378     0.36200
C1008       C  0.18446505  0.24009810  0.70008738     0.36200
N1009       N  0.14412364  0.12887556  0.62348409    -0.38600
N1010       N  0.18842626  0.25657078  0.71596684    -0.38600
N1011       N  0.20855375  0.15769788  0.66780746    -0.38100
N1012       N  0.12722156  0.22981165  0.66482566    -0.38100
C1013       C  0.04205971  0.17933316  0.65026271    -0.04700
C1014       C  0.04764932  0.18694668  0.67963504    -0.01900
C1015       C  0.03627666  0.19968084  0.69341383     0.03100
C1016       C  0.01884767  0.20468358  0.67802779    -0.04700
C1017       C  0.01374304  0.19751902  0.64834461    -0.01800
C1018       C  0.02508437  0.18469935  0.63466989     0.03100
C1019       C  0.06550377  0.18200004  0.69564423     0.37800
C1020       C  0.49148492  0.19678598  0.63421301     0.37800
C1021       C  0.01840629  0.17613453  0.60480396     0.36200
C1022       C  0.04245611  0.20727346  0.72361205     0.36200
N1023       N  0.01275664  0.16918979  0.58107346    -0.38600
N1024       N  0.04771733  0.21345209  0.74761877    -0.38600
N1025       N  0.47615205  0.19915508  0.62161001    -0.38100
N1026       N  0.07970051  0.17795379  0.70833598    -0.38100
C1027       C  0.44348898  0.01596380  0.61056089    -0.04700
C1028       C  0.46110864  0.01989256  0.63318284    -0.01900
C1029       C  0.48567754  0.04242720  0.63355587     0.03100
C1030       C  0.49179090  0.06235305  0.61318835    -0.04700
C1031       C  0.47245993  0.06013371  0.59414786    -0.01800
C1032       C  0.44958270  0.03636572  0.59091626     0.03100
C1033       C  0.45305490  0.49134554  0.65823247     0.37800
C1034       C  0.47555359  0.08251488  0.57870296     0.37800
C1035       C  0.43409828  0.03241301  0.56534199     0.36200
C1036       C  0.00033149  0.04602680  0.66430266     0.36200
N1037       N  0.42287021  0.02913430  0.54389990    -0.38600
N1038       N  0.01386044  0.04864159  0.68351806    -0.38600
N1039       N  0.47715536  0.10033570  0.56715457    -0.38100
N1040       N  0.44821729  0.47377268  0.67273295    -0.38100
C1041       C  0.08251806  0.01504227  0.61579446    -0.04700
C1042       C  0.07597516  0.02167992  0.64288850    -0.01900
C1043       C  0.08000036  0.04673826  0.64726140     0.03100
C1044       C  0.09062794  0.06514297  0.62487107    -0.04700
C1045       C  0.10108167  0.05976140  0.60032999    -0.01800
C1046       C  0.09521613  0.03454006  0.59457674     0.03100
C1047       C  0.06232639  0.00220961  0.66497624     0.37800
C1048       C  0.11640493  0.07988563  0.57956315     0.37800
C1049       C  0.09554896  0.52499973  0.56760289     0.36200
C1050       C  0.07237567  0.05335735  0.67423922     0.36200
N1051       N  0.09680148  0.52008101  0.54356848    -0.38600
N1052       N  0.06679547  0.05883079  0.69601459    -0.38600
N1053       N  0.12910246  0.09527247  0.56256793    -0.38100
N1054       N  0.05120846  0.98673379  0.68260009    -0.38100
C1055       C  0.14666120  0.12623792  0.47403326    -0.04700
C1056       C  0.12799491  0.13320691  0.46777676    -0.01900
C1057       C  0.11879711  0.14256106  0.48990192     0.03100
C1058       C  0.12843457  0.14519418  0.51836888    -0.04700
C1059       C  0.15098264  0.14384763  0.52285205    -0.01800
C1060       C  0.16010471  0.13422612  0.50059880     0.03100
C1061       C  0.11698387  0.12900407  0.43893490     0.37800
C1062       C  0.16466113  0.15229324  0.55016855     0.37800
C1063       C  0.18247749  0.13164444  0.50534828     0.36200
C1064       C  0.09786272  0.14728003  0.48387353     0.36200
N1065       N  0.20062558  0.13000643  0.50892718    -0.38600
N1066       N  0.08126034  0.15112425  0.47889632    -0.38600
N1067       N  0.17624415  0.15942719  0.57160165    -0.38100
N1068       N  0.10821561  0.12564771  0.41587938    -0.38100
C1069       C  0.45900354  0.13755226  0.34502368    -0.04700
C1070       C  0.47216283  0.14167023  0.31795837    -0.01900
C1071       C  0.48287429  0.16564030  0.30358877     0.03100
C1072       C  0.48197174  0.18632791  0.31654228    -0.04700
C1073       C  0.46721314  0.18189213  0.34198916    -0.01800
C1074       C  0.45600042  0.15787234  0.35632888     0.03100
C1075       C  0.47577275  0.12184897  0.30478640     0.37800
C1076       C  0.46222150  0.20166542  0.35248245     0.37800
C1077       C  0.44129171  0.15455489  0.38265923     0.36200
C1078       C  0.49472035  0.16879153  0.27521656     0.36200
N1079       N  0.42976005  0.15222298  0.40369523    -0.38600
N1080       N  0.00758789  0.17159427  0.25580104    -0.38600
N1081       N  0.45775309  0.21715301  0.36061588    -0.38100
N1082       N  0.47879511  0.10622090  0.29402483    -0.38100
C1083       C  0.31237154  0.01330990  0.30644602    -0.04700
C1084       C  0.32765241  0.04044928  0.30840663    -0.01900
C1085       C  0.35037304  0.05198697  0.32545669     0.03100
C1086       C  0.35857132  0.03651710  0.33953416    -0.04700
C1087       C  0.34452805  0.00951217  0.33516443    -0.01800
C1088       C  0.32151861  0.99800561  0.31895245     0.03100
C1089       C  0.32042453  0.05660981  0.29246222     0.37800
C1090       C  0.35370612  0.99325228  0.34707593     0.37800
C1091       C  0.30778715  0.97036054  0.31411661     0.36200
C1092       C  0.36596797  0.07979876  0.32740937     0.36200
N1093       N  0.29698892  0.94835156  0.31017615    -0.38600
N1094       N  0.37855882  0.10199394  0.32897351    -0.38600
N1095       N  0.36088068  0.98003325  0.35602951    -0.38100
N1096       N  0.31507047  0.06958545  0.27924380    -0.38100
C1097       C  0.41954494  0.43055047  0.37622851    -0.04700
C1098       C  0.42648400  0.44528635  0.35016698    -0.01900
C1099       C  0.42256897  0.46647415  0.34782707     0.03100
C1100       C  0.41055826  0.47202478  0.37090148    -0.04700
C1101       C  0.39770767  0.45315103  0.39249555    -0.01800
C1102       C  0.40427784  0.43424970  0.39695888     0.03100
C1103       C  0.44005287  0.44069586  0.32703702     0.37800
C1104       C  0.37948181  0.45434932  0.41212676     0.37800
C1105       C  0.39808934  0.42157617  0.42504892     0.36200
C1106       C  0.43255768  0.48331423  0.32269477     0.36200
N1107       N  0.39443411  0.41322293  0.44833971    -0.38600
N1108       N  0.44063740  0.49667828  0.30259451    -0.38600
N1109       N  0.38028629  0.96517718  0.44860553    -0.38100
N1110       N  0.45085070  0.43710525  0.30850854    -0.38100
C1111       C  0.01870620  0.12427315  0.52118324    -0.04700
C1112       C  0.00301715  0.09738360  0.51568812    -0.01900
C1113       C  0.48342625  0.08803246  0.49707593     0.03100
C1114       C  0.47623075  0.10381631  0.48182916    -0.04700
C1115       C  0.99051092  0.13135815  0.48789476    -0.01800
C1116       C  0.01169192  0.14112770  0.50776002     0.03100
C1117       C  0.51586471  0.08194584  0.52146240     0.37800
C1118       C  0.98485966  0.14876417  0.47218987     0.37800
C1119       C  0.02759008  0.16862333  0.51210678     0.36200
C1120       C  0.46810298  0.06008873  0.49442105     0.36200
N1121       N  0.04035576  0.19063089  0.51545025    -0.38600
N1122       N  0.45636626  0.03790543  0.49209331    -0.38600
N1123       N  0.98024762  0.16262888  0.45968653    -0.38100
N1124       N  0.52312551  0.06795414  0.52702417    -0.38100
C1125       C  0.37186496  0.01895376  0.47642874    -0.04700
C1126       C  0.37622540  0.02551715  0.50614825    -0.01900
C1127       C  0.36146046  0.50364447  0.52747797     0.03100
C1128       C  0.34823267  0.47747688  0.51966810    -0.04700
C1129       C  0.33919486  0.47103338  0.49092600    -0.01800
C1130       C  0.34895268  0.49039790  0.46916596     0.03100
C1131       C  0.39361942  0.05204079  0.51445669     0.37800
C1132       C  0.31961576  0.44488909  0.48416789     0.37800
C1133       C  0.33906641  0.48461759  0.43979276     0.36200
C1134       C  0.36918192  0.01232432  0.55820671     0.36200
N1135       N  0.33074523  0.48001346  0.41646213    -0.38600
N1136       N  0.37244072  0.01741805  0.58268485    -0.38600
N1137       N  0.30327328  0.42418053  0.47896770    -0.38100
N1138       N  0.40767168  0.07319496  0.52104533    -0.38100
C1139       C  0.00938173  0.06250529  0.37267365    -0.04700
C1140       C  0.01121866  0.04081933  0.38096071    -0.01900
C1141       C  0.03527635  0.04265421  0.38336861     0.03100
C1142       C  0.05812863  0.06593673  0.37685365    -0.04700
C1143       C  0.05637086  0.08694971  0.36581072    -0.01800
C1144       C  0.03198836  0.08527987  0.36387128     0.03100
C1145       C  0.98844823  0.01648684  0.38873978     0.37800
C1146       C  0.07945825  0.11085543  0.35832710     0.37800
C1147       C  0.03049326  0.10749365  0.35460379     0.36200
C1148       C  0.03616026  0.02033925  0.39387323     0.36200
N1149       N  0.02948591  0.12532490  0.34718183    -0.38600
N1150       N  0.03575467  0.00220158  0.40284573    -0.38600
N1151       N  0.09746349  0.13043490  0.35257442    -0.38100
N1152       N  0.47156592  0.99397804  0.38990865    -0.38100
Fe1153     Fe  0.43847125  0.53764462  0.42542233     1.65800
Fe1154     Fe  0.43676016  0.55468760  0.35675118     1.73200
Fe1155     Fe  0.41499580  0.57681984  0.41238642     1.54400
O1156       O  0.38671608  0.54708411  0.43772793    -0.81100
O1157       O  0.44596088  0.59185936  0.34832986    -0.79400
O1158       O  0.40796838  0.52815192  0.45319241    -0.83600
O1159       O  0.46190896  0.57030555  0.44785391    -0.78400
O1160       O  0.38805730  0.56357704  0.37803818    -0.80200
O1161       O  0.47524640  0.56700781  0.36314306    -0.83000
C1162       C  0.45793637  0.58742564  0.45829768     0.97800
C1163       C  0.38874015  0.53131493  0.45425231     1.05200
O1164       O  0.43006156  0.55662988  0.39821577    -1.11900
O1165       O  0.42777818  0.51653937  0.35849355    -0.74400
O1166       O  0.41551179  0.50422098  0.40385581    -0.77900
O1167       O  0.44034515  0.59151048  0.44864487    -0.78600
C1168       C  0.41759930  0.49902036  0.37769137     0.96700
O1169       O  0.47027386  0.54353510  0.40241607    -0.76500
O1170       O  0.39940926  0.54204182  0.34749167    -0.81700
C1171       C  0.44861788  0.61096122  0.36263263     0.99300
C1172       C  0.38360887  0.54847275  0.35647201     1.05200
O1173       O  0.44119546  0.60870238  0.38886519    -0.77300
C1174       C  0.48329878  0.55625710  0.38050291     1.03500
Fe1175     Fe  0.06825094  0.62156592  0.64384846     1.65800
Fe1176     Fe  0.06017580  0.60006163  0.57515814     1.73200
Fe1177     Fe  0.08338969  0.66227529  0.58503221     1.54400
O1178       O  0.06612912  0.67322788  0.61631071    -0.81100
O1179       O  0.09678581  0.61645401  0.55847608    -0.79400
O1180       O  0.05091782  0.64322726  0.65095687    -0.83600
O1181       O  0.10445858  0.65265499  0.65056905    -0.78400
O1182       O  0.04893646  0.64871326  0.56036536    -0.80200
O1183       O  0.06743826  0.57761987  0.60173185    -0.83000
C1184       C  0.12148620  0.67090751  0.63518291     0.97800
C1185       C  0.05309482  0.66335690  0.63930401     1.05200
O1186       O  0.07107480  0.62825518  0.60190210    -1.11900
O1187       O  0.02374583  0.58417227  0.59243323    -0.74400
O1188       O  0.03138322  0.58956782  0.64026398    -0.77900
O1189       O  0.11719984  0.67678829  0.60983464    -0.78600
C1190       C  0.01615226  0.57943226  0.61876819     0.96700
O1191       O  0.08558516  0.59902891  0.64206609    -0.76500
O1192       O  0.05136652  0.61680448  0.54177875    -0.81700
C1193       C  0.10803939  0.63805661  0.54546299     0.99300
C1194       C  0.04015903  0.62954251  0.54318931     1.05200
O1195       O  0.10273454  0.65569277  0.55077239    -0.77300
C1196       C  0.08061785  0.58104184  0.62430238     1.03500
Fe1197     Fe  0.05708902  0.94643381  0.56022495     1.65800
Fe1198     Fe  0.06389839  0.93515692  0.63140394     1.73200
Fe1199     Fe  0.08815675  0.91373293  0.57705974     1.54400
O1200       O  0.06037858  0.89132166  0.54606835    -0.81100
O1201       O  0.10152587  0.94596780  0.64262068    -0.79400
O1202       O  0.04246244  0.91440716  0.53353668    -0.83600
O1203       O  0.09198391  0.96505722  0.53950747    -0.78400
O1204       O  0.06779143  0.88332658  0.60583392    -0.80200
O1205       O  0.07556445  0.97366969  0.62891940    -0.83000
C1206       C  0.11106376  0.96186172  0.53624056     0.97800
C1207       C  0.04407230  0.89427541  0.53163529     1.05200
O1208       O  0.06976552  0.93175585  0.58966088    -1.11900
O1209       O  0.02516471  0.92441423  0.62529573    -0.74400
O1210       O  0.02141515  0.93034083  0.57835148    -0.77900
O1211       O  0.11176847  0.94274261  0.54707877    -0.78600
C1212       C  0.01166726  0.92343190  0.60342587     0.96700
O1213       O  0.06852455  0.97985473  0.58313890    -0.76500
O1214       O  0.05181342  0.89750708  0.64000213    -0.81700
C1215       C  0.11961752  0.94356244  0.63168265     0.99300
C1216       C  0.05501923  0.88010120  0.62908229     1.05200
O1217       O  0.11734381  0.93263475  0.60733386    -0.77300
C1218       C  0.07515910  0.98791140  0.60893924     1.03500
Fe1219     Fe  0.12794186  0.55805648  0.36076777     1.65800
Fe1220     Fe  0.10834366  0.54867689  0.43136622     1.73200
Fe1221     Fe  0.17277939  0.58412079  0.41669413     1.54400
O1222       O  0.18516911  0.56533882  0.38890363    -0.81100
O1223       O  0.12236452  0.58237787  0.45323771    -0.79400
O1224       O  0.15587281  0.54889460  0.35343144    -0.83600
O1225       O  0.15351979  0.59616374  0.35051691    -0.78400
O1226       O  0.16859324  0.55745791  0.44852914    -0.80200
O1227       O  0.08530528  0.55848191  0.40857389    -0.83000
C1228       C  0.17336466  0.61492864  0.36200986     0.97800
C1229       C  0.17640172  0.55255181  0.36552049     1.05200
O1230       O  0.13642340  0.56369037  0.40283450    -1.11900
O1231       O  0.09089214  0.51344475  0.41220513    -0.74400
O1232       O  0.10134634  0.51868160  0.36543904    -0.77900
O1233       O  0.18196992  0.61296146  0.38651142    -0.78600
C1234       C  0.08878306  0.50443519  0.38687496     0.96700
O1235       O  0.09815556  0.56622551  0.36241740    -0.76500
O1236       O  0.12660529  0.53575281  0.45820556    -0.81700
C1237       C  0.14387990  0.60268546  0.45698450     0.99300
C1238       C  0.14923138  0.54005831  0.46219087     1.05200
O1239       O  0.16475730  0.60592867  0.44598136    -0.77300
C1240       C  0.08257624  0.56359340  0.38256099     1.03500
Fe1241     Fe  0.44043684  0.87290240  0.36233569     1.65800
Fe1242     Fe  0.44825224  0.88997071  0.43391422     1.73200
Fe1243     Fe  0.41486177  0.82625785  0.41591757     1.54400
O1244       O  0.38537377  0.81776220  0.38676831    -0.81100
O1245       O  0.46335103  0.87218055  0.45803176    -0.79400
O1246       O  0.40282531  0.84678057  0.35133109    -0.83600
O1247       O  0.45212617  0.84700553  0.35259616    -0.78400
O1248       O  0.39245023  0.83150527  0.44727524    -0.80200
O1249       O  0.48350615  0.91063329  0.41473982    -0.83000
C1250       C  0.44675250  0.82528881  0.36282724     0.97800
C1251       C  0.38381940  0.82693823  0.36241613     1.05200
O1252       O  0.43454351  0.86297856  0.40395651    -1.11900
O1253       O  0.43591673  0.91142084  0.41288836    -0.74400
O1254       O  0.42885031  0.89967543  0.36666716    -0.77900
O1255       O  0.43295524  0.81569598  0.38542525    -0.78600
C1256       C  0.42850444  0.91306013  0.38768491     0.96700
O1257       O  0.47912463  0.90067763  0.36793537    -0.76500
O1258       O  0.41412235  0.87347500  0.45646906    -0.81700
C1259       C  0.46105275  0.85014769  0.45925067     0.99300
C1260       C  0.39432891  0.85137893  0.45927954     1.05200
O1261       O  0.44351442  0.83075682  0.44560515    -0.77300
C1262       C  0.49282012  0.91355780  0.38945927     1.03500
Fe1263     Fe  0.37957683  0.93749781  0.63071909     1.65800
Fe1264     Fe  0.39440772  0.94737428  0.55844404     1.73200
Fe1265     Fe  0.33105932  0.91379408  0.57913597     1.54400
O1266       O  0.32276391  0.88410027  0.60802797    -0.81100
O1267       O  0.37641373  0.96451024  0.53829621    -0.79400
O1268       O  0.35388865  0.89992734  0.64143051    -0.83600
O1269       O  0.35383620  0.94906081  0.64308872    -0.78400
O1270       O  0.33543095  0.89118037  0.54748534    -0.80200
O1271       O  0.41732152  0.98159855  0.57912221    -0.83000
C1272       C  0.33257242  0.94579441  0.63337877     0.97800
C1273       C  0.33325072  0.88171928  0.63089694     1.05200
O1274       O  0.36830232  0.93292300  0.58953185    -1.11900
O1275       O  0.41560109  0.93265662  0.57603467    -0.74400
O1276       O  0.40652162  0.92626243  0.62316258    -0.77900
O1277       O  0.32213209  0.93316178  0.61023139    -0.78600
C1278       C  0.41883595  0.92570995  0.60099421     0.96700
O1279       O  0.40761081  0.97589125  0.62610466    -0.76500
O1280       O  0.37623850  0.91480269  0.53315820    -0.81700
C1281       C  0.35369328  0.96064724  0.53650181     0.99300
C1282       C  0.35440020  0.89444313  0.53204547     1.05200
O1283       O  0.33452742  0.94175202  0.54900372    -0.77300
C1284       C  0.42109341  0.98973909  0.60499871     1.03500
Fe1285     Fe  0.22936575  0.95733087  0.30609691     1.65800
Fe1286     Fe  0.20523230  0.93327134  0.23945096     1.73200
Fe1287     Fe  0.24966107  0.49826142  0.24668005     1.54400
O1288       O  0.23649168  0.51324669  0.27921269    -0.81100
O1289       O  0.23211587  0.94446226  0.20744280    -0.79400
O1290       O  0.22169566  0.98609811  0.31521091    -0.83600
O1291       O  0.26824225  0.98232462  0.30878357    -0.78400
O1292       O  0.21935942  0.99332209  0.21790565    -0.80200
O1293       O  0.21974654  0.91153919  0.25657143    -0.83000
C1294       C  0.28667875  0.50022912  0.29452969     0.97800
C1295       C  0.22550595  0.50500622  0.30392126     1.05200
O1296       O  0.22784196  0.96284349  0.26383104    -1.11900
O1297       O  0.17483241  0.91732694  0.26763137    -0.74400
O1298       O  0.19032070  0.93111315  0.31163215    -0.77900
O1299       O  0.28261011  0.50747461  0.27025243    -0.78600
C1300       C  0.17175621  0.91722856  0.29477391     0.96700
O1301       O  0.23721799  0.92789464  0.29978753    -0.76500
O1302       O  0.18850909  0.95201157  0.21973044    -0.81700
C1303       C  0.25320261  0.96365644  0.19928754     0.99300
C1304       C  0.19730335  0.97487859  0.21066640     1.05200
O1305       O  0.26373802  0.98507546  0.21277905    -0.77300
C1306       C  0.23178821  0.91170095  0.27938903     1.03500
Fe1307     Fe  0.12681523  0.89294856  0.08858055     1.65800
Fe1308     Fe  0.10241180  0.89238643  0.02180865     1.73200
Fe1309     Fe  0.08212621  0.91173020  0.08201258     1.54400
O1310       O  0.06624872  0.88158191  0.11252279    -0.81100
O1311       O  0.10806981  0.92836716  0.01331387    -0.79400
O1312       O  0.09738998  0.87204456  0.11802942    -0.83600
O1313       O  0.14044850  0.92636779  0.11167815    -0.78400
O1314       O  0.05033067  0.89008290  0.05609188    -0.80200
O1315       O  0.14179401  0.90762574  0.01753563    -0.83000
C1316       C  0.13146217  0.94019563  0.12001971     0.97800
C1317       C  0.07510687  0.86836462  0.12411766     1.05200
O1318       O  0.10365447  0.89892204  0.06409404    -1.11900
O1319       O  0.09748634  0.85586943  0.02618649    -0.74400
O1320       O  0.11755035  0.85918281  0.06812121    -0.77900
O1321       O  0.10975568  0.93641248  0.11166656    -0.78600
C1322       C  0.10703320  0.84740201  0.04473427     0.96700
O1323       O  0.15845365  0.91228908  0.06168966    -0.76500
O1324       O  0.06293048  0.87578893  0.01873495    -0.81700
C1325       C  0.10568349  0.94549298  0.02667192     0.99300
C1326       C  0.04579174  0.87758027  0.03266689     1.05200
O1327       O  0.09642974  0.94226494  0.05237969    -0.77300
C1328       C  0.16084710  0.91383674  0.03422803     1.03500
Fe1329     Fe  0.04286482  0.76852578  0.32299269     1.65800
Fe1330     Fe  0.07544530  0.78753785  0.26097536     1.73200
Fe1331     Fe  0.50823127  0.74822783  0.25613083     1.54400
O1332       O  0.49560028  0.71587320  0.28157900    -0.81100
O1333       O  0.06117273  0.79766364  0.22569238    -0.79400
O1334       O  0.01221757  0.73084260  0.32579659    -0.83600
O1335       O  0.01854991  0.78247317  0.32310534    -0.78400
O1336       O  0.52401895  0.73208327  0.22758742    -0.80200
O1337       O  0.08222493  0.82042917  0.28077527    -0.83000
C1338       C  0.49506189  0.77382790  0.30769882     0.97800
C1339       C  0.49837828  0.71207846  0.30807210     1.05200
O1340       O  0.04277304  0.76855827  0.28052019    -1.11900
O1341       O  0.09579285  0.78041952  0.29270119    -0.74400
O1342       O  0.06714782  0.75380197  0.32482873    -0.77900
O1343       O  0.48948078  0.76193357  0.28329214    -0.78600
C1344       C  0.08864758  0.76306052  0.31205489     0.96700
O1345       O  0.07345261  0.80694906  0.32657244    -0.76500
O1346       O  0.06906720  0.75514421  0.24035946    -0.81700
C1347       C  0.04020321  0.79632097  0.21840380     0.99300
C1348       C  0.05079621  0.73976814  0.22402027     1.05200
O1349       O  0.01933358  0.78225390  0.23207761    -0.77300
C1350       C  0.08347870  0.82500501  0.30776928     1.03500
Fe1351     Fe  0.10833150  0.70599465  0.02036509     1.65800
Fe1352     Fe  0.13324207  0.72920485  0.08697715     1.73200
Fe1353     Fe  0.08707573  0.66563404  0.08008681     1.54400
O1354       O  0.05488015  0.65721410  0.05489716    -0.81100
O1355       O  0.14727632  0.70880978  0.10809456    -0.79400
O1356       O  0.06974133  0.68203712  0.01611613    -0.83600
O1357       O  0.11527333  0.67685750  0.01152986    -0.78400
O1358       O  0.07262278  0.67945882  0.11273290    -0.80200
O1359       O  0.16450630  0.74325881  0.05926414    -0.83000
C1360       C  0.11191251  0.65683699  0.02467423     0.97800
C1361       C  0.05128774  0.66468780  0.03043129     1.05200
O1362       O  0.10941684  0.70022745  0.06253174    -1.11900
O1363       O  0.12225174  0.75317921  0.06858637    -0.74400
O1364       O  0.10198811  0.73639883  0.02652646    -0.77900
O1365       O  0.10066571  0.64939756  0.04937784    -0.78600
C1366       C  0.11069011  0.75390947  0.04582531     0.96700
O1367       O  0.14691876  0.73123020  0.01573620    -0.76500
O1368       O  0.10538077  0.71963811  0.11808324    -0.81700
C1369       C  0.13712686  0.68591011  0.11736691     0.99300
C1370       C  0.08373027  0.70097651  0.12614365     1.05200
O1371       O  0.11496672  0.66817374  0.10923306    -0.77300
C1372       C  0.16619378  0.74433854  0.03180056     1.03500
Fe1373     Fe  0.29055877  0.89388628  0.00294922     1.65800
Fe1374     Fe  0.25590250  0.87354512  0.06530733     1.73200
Fe1375     Fe  0.32117518  0.90903707  0.07030874     1.54400
O1376       O  0.33864498  0.89314813  0.04532817    -0.81100
O1377       O  0.26518881  0.90011891  0.09712046    -0.79400
O1378       O  0.32022825  0.88646669  0.00150139    -0.83600
O1379       O  0.31587977  0.93216678  0.00282251    -0.78400
O1380       O  0.30819808  0.87753300  0.09992585    -0.80200
O1381       O  0.24190960  0.89261858  0.04246133    -0.83000
C1382       C  0.33371286  0.94803203  0.01916767     0.97800
C1383       C  0.33689371  0.88669011  0.01861410     1.05200
O1384       O  0.28944766  0.89225421  0.04613536    -1.11900
O1385       O  0.24182961  0.84349099  0.03685619    -0.74400
O1386       O  0.26611565  0.85499205  0.99711549    -0.77900
O1387       O  0.33841822  0.94220056  0.04419767    -0.78600
C1388       C  0.24827722  0.83829608  0.01282281     0.96700
O1389       O  0.26117074  0.90278055  0.99924716    -0.76500
O1390       O  0.26662988  0.85346620  0.09071824    -0.81700
C1391       C  0.28441799  0.92059637  0.10617001     0.99300
C1392       C  0.28636451  0.85714699  0.10431471     1.05200
O1393       O  0.30715491  0.92763775  0.09728698    -0.77300
C1394       C  0.24534806  0.90273637  0.01760407     1.03500
Fe1395     Fe  0.20654274  0.76773085  0.24124159     1.65800
Fe1396     Fe  0.23095716  0.76960185  0.30817847     1.73200
Fe1397     Fe  0.24964186  0.74746676  0.24912080     1.54400
O1398       O  0.22146290  0.72371382  0.21911049    -0.81100
O1399       O  0.26968087  0.78396245  0.31136672    -0.79400
O1400       O  0.18924034  0.73138803  0.22290479    -0.83600
O1401       O  0.23399014  0.78326143  0.20927322    -0.78400
O1402       O  0.23324137  0.71742089  0.27912330    -0.80200
O1403       O  0.23868689  0.80686706  0.30051469    -0.83000
C1404       C  0.25598828  0.78668540  0.20267705     0.97800
C1405       C  0.19881110  0.71855651  0.21265148     1.05200
O1406       O  0.22924046  0.76175190  0.26629509    -1.11900
O1407       O  0.19220463  0.75667076  0.31360735    -0.74400
O1408       O  0.17626581  0.75366050  0.26957986    -0.77900
O1409       O  0.26684289  0.77686896  0.21755096    -0.78600
C1410       C  0.17359193  0.75169074  0.29685851     0.96700
O1411       O  0.22083418  0.80443483  0.25718500    -0.76500
O1412       O  0.22313537  0.73291626  0.31836379    -0.81700
C1413       C  0.28625326  0.78016280  0.29925934     0.99300
C1414       C  0.22402929  0.71500601  0.30472964     1.05200
O1415       O  0.28165427  0.76754404  0.27582586    -0.77300
C1416       C  0.23273697  0.81695101  0.27979059     1.03500
Fe1417     Fe  0.38806454  0.61414171  0.89501448     1.65800
Fe1418     Fe  0.39507915  0.60416913  0.96638108     1.73200
Fe1419     Fe  0.42225875  0.58498500  0.91301095     1.54400
O1420       O  0.39567361  0.56211791  0.88070525    -0.81100
O1421       O  0.43331996  0.61990449  0.97741012    -0.79400
O1422       O  0.37084673  0.57931903  0.87341563    -0.83600
O1423       O  0.41973634  0.62910126  0.86882392    -0.78400
O1424       O  0.40223995  0.55367931  0.94111823    -0.80200
O1425       O  0.40105300  0.64088685  0.96178625    -0.83000
C1426       C  0.44042374  0.62870427  0.86671938     0.97800
C1427       C  0.37609483  0.56163094  0.86933023     1.05200
O1428       O  0.40201729  0.60117422  0.92487012    -1.11900
O1429       O  0.35561412  0.58833388  0.96044896    -0.74400
O1430       O  0.35404101  0.60160958  0.91603816    -0.77900
O1431       O  0.44527615  0.61447937  0.88295199    -0.78600
C1432       C  0.34319057  0.59074242  0.93958961     0.96700
O1433       O  0.40342721  0.64982261  0.91441191    -0.76500
O1434       O  0.38784208  0.56805012  0.97678131    -0.81700
C1435       C  0.45165141  0.61732662  0.96785028     0.99300
C1436       C  0.39041660  0.55049864  0.96508110     1.05200
O1437       O  0.45016225  0.60498057  0.94473996    -0.77300
C1438       C  0.40447359  0.65612287  0.94093828     1.03500
Fe1439     Fe  0.46230690  0.72912197  0.69207576     1.65800
Fe1440     Fe  0.44789310  0.72538140  0.76293028     1.73200
Fe1441     Fe  0.00747680  0.75044111  0.74504085     1.54400
O1442       O  0.01723609  0.73295174  0.71239821    -0.81100
O1443       O  0.46446955  0.76214810  0.77780453    -0.79400
O1444       O  0.48309197  0.71088384  0.68610700    -0.83600
O1445       O  0.49287614  0.76445392  0.67864767    -0.78400
O1446       O  0.99988335  0.71904991  0.77115072    -0.80200
O1447       O  0.42375316  0.73316335  0.73904298    -0.83000
C1448       C  0.01138888  0.78493016  0.69414548     0.97800
C1449       C  0.00519467  0.71702167  0.69200948     1.05200
O1450       O  0.47343073  0.73607107  0.73269258    -1.11900
O1451       O  0.42950234  0.68832592  0.74880077    -0.74400
O1452       O  0.42954417  0.69334459  0.70078807    -0.77900
O1453       O  0.01809225  0.78273523  0.71971385    -0.78600
C1454       C  0.42008724  0.68008317  0.72382512     0.96700
O1455       O  0.44012546  0.74643540  0.69488305    -0.76500
O1456       O  0.46798219  0.71538953  0.79182331    -0.81700
C1457       C  0.48685460  0.77579909  0.78805714     0.99300
C1458       C  0.48597899  0.71047248  0.78826846     1.05200
O1459       O  0.00284436  0.76996184  0.78047266    -0.77300
C1460       C  0.42416945  0.74333474  0.71475711     1.03500
Fe1461     Fe  0.39118699  0.79070952  0.96626827     1.65800
Fe1462     Fe  0.38442982  0.77233695  0.89549739     1.73200
Fe1463     Fe  0.42269984  0.83577524  0.91185743     1.54400
O1464       O  0.40518560  0.85010862  0.93968236    -0.81100
O1465       O  0.41612697  0.78672772  0.86974852    -0.79400
O1466       O  0.38369514  0.81962459  0.97286117    -0.83600
O1467       O  0.42910499  0.81396529  0.97896273    -0.78400
O1468       O  0.39724734  0.83333287  0.87900264    -0.80200
O1469       O  0.39800460  0.75166800  0.91714651    -0.83000
C1470       C  0.44938372  0.83267851  0.96813368     0.97800
C1471       C  0.39091584  0.84164237  0.96228870     1.05200
O1472       O  0.39948416  0.79975727  0.92465417    -1.11900
O1473       O  0.34967786  0.75228312  0.91536463    -0.74400
O1474       O  0.35164012  0.76632642  0.96004762    -0.77900
O1475       O  0.44980220  0.84205950  0.94323925    -0.78600
C1476       C  0.33892012  0.75197898  0.93894455     0.96700
O1477       O  0.39811318  0.76055375  0.96428987    -0.76500
O1478       O  0.36986561  0.79121051  0.87248963    -0.81700
C1479       C  0.43852619  0.80601611  0.86903400     0.99300
C1480       C  0.37706630  0.81463765  0.86769857     1.05200
O1481       O  0.44444373  0.82624303  0.88360898    -0.77300
C1482       C  0.40120709  0.74836054  0.94375585     1.03500
Fe1483     Fe  0.20728384  0.60169538  0.96087444     1.65800
Fe1484     Fe  0.22456184  0.61083902  0.88941839     1.73200
Fe1485     Fe  0.16052292  0.57851271  0.90718913     1.54400
O1486       O  0.15001382  0.54980569  0.93841995    -0.81100
O1487       O  0.20733077  0.62560996  0.86420812    -0.79400
O1488       O  0.18170422  0.56355920  0.97100539    -0.83600
O1489       O  0.18018737  0.61162561  0.97130806    -0.78400
O1490       O  0.16589726  0.55463619  0.87837264    -0.80200
O1491       O  0.24428846  0.64587104  0.90901854    -0.83000
C1492       C  0.16022865  0.61008523  0.95989557     0.97800
C1493       C  0.15987792  0.54644235  0.96131820     1.05200
O1494       O  0.19735100  0.59700135  0.91925690    -1.11900
O1495       O  0.24661346  0.59918558  0.91012960    -0.74400
O1496       O  0.23563200  0.59179723  0.95635770    -0.77900
O1497       O  0.15121102  0.59935107  0.93548901    -0.78600
C1498       C  0.24928225  0.59224996  0.93511106     0.96700
O1499       O  0.23397182  0.64090781  0.95575101    -0.76500
O1500       O  0.20785878  0.57670226  0.86748122    -0.81700
C1501       C  0.18523046  0.62280630  0.86128038     0.99300
C1502       C  0.18579334  0.55660085  0.86610005     1.05200
O1503       O  0.16561519  0.60563868  0.87495632    -0.77300
C1504       C  0.24645962  0.65509652  0.93424449     1.03500
Fe1505     Fe  0.27296619  0.54102099  0.69875747     1.65800
Fe1506     Fe  0.28177312  0.55573809  0.77048883     1.73200
Fe1507     Fe  0.24996891  0.99115040  0.74965734     1.54400
O1508       O  0.21861090  0.98099278  0.72227567    -0.81100
O1509       O  0.29396240  0.53646570  0.79671424    -0.79400
O1510       O  0.23632428  0.51218476  0.68696798    -0.83600
O1511       O  0.28870168  0.51828139  0.68828929    -0.78400
O1512       O  0.22815227  0.99551164  0.78338624    -0.80200
O1513       O  0.31767189  0.57350902  0.75279343    -0.83000
C1514       C  0.28462870  0.99523078  0.69664382     0.97800
C1515       C  0.21690626  0.98882016  0.69703334     1.05200
O1516       O  0.26809602  0.52981104  0.73974716    -1.11900
O1517       O  0.27245322  0.57989511  0.74900230    -0.74400
O1518       O  0.25765926  0.56477276  0.70488966    -0.77900
O1519       O  0.26889653  0.98275320  0.71717127    -0.78600
C1520       C  0.26204056  0.58060924  0.72533603     0.96700
O1521       O  0.31000459  0.57263193  0.70531062    -0.76500
O1522       O  0.24697052  0.53993115  0.79073062    -0.81700
C1523       C  0.29515498  0.51623401  0.79427375     0.99300
C1524       C  0.22942482  0.51699496  0.79574390     1.05200
O1525       O  0.28118743  0.99826835  0.77659947    -0.77300
C1526       C  0.32449316  0.58243446  0.72741508     1.03500
Fe1527     Fe  0.28671212  0.72392056  0.76725217     1.65800
Fe1528     Fe  0.27589920  0.72891379  0.69537527     1.73200
Fe1529     Fe  0.25319270  0.75353887  0.74766830     1.54400
O1530       O  0.23001539  0.72513907  0.77777404    -0.81100
O1531       O  0.28682141  0.76614297  0.68329968    -0.79400
O1532       O  0.25382126  0.70847113  0.79236608    -0.83600
O1533       O  0.30392716  0.75886581  0.78781887    -0.78400
O1534       O  0.22354860  0.73309497  0.71814701    -0.80200
O1535       O  0.31479022  0.74096307  0.69924875    -0.83000
C1536       C  0.29991004  0.77742979  0.79043218     0.97800
C1537       C  0.23305902  0.70903989  0.79256954     1.05200
O1538       O  0.27193181  0.73549950  0.73665633    -1.11900
O1539       O  0.26530583  0.69055998  0.70275563    -0.74400
O1540       O  0.27232468  0.68808515  0.74968132    -0.77900
O1541       O  0.28076669  0.77741394  0.77862702    -0.78600
C1542       C  0.26525391  0.67778459  0.72486972     0.96700
O1543       O  0.32090788  0.73655507  0.74588236    -0.76500
O1544       O  0.23791089  0.71631269  0.68547919    -0.81700
C1545       C  0.28505913  0.78463628  0.69395786     0.99300
C1546       C  0.22019895  0.71961763  0.69558961     1.05200
O1547       O  0.27352161  0.78285029  0.71779097    -0.77300
C1548       C  0.32923300  0.74224778  0.72008660     1.03500
C1549       C  0.25799433  0.65000978  0.72216012    -0.04700
C1550       C  0.24910612  0.63361558  0.74695573    -0.01900
C1551       C  0.24768449  0.60956309  0.74665003     0.03100
C1552       C  0.25600020  0.60168898  0.72206437    -0.04700
C1553       C  0.26231005  0.61661111  0.69633682    -0.01800
C1554       C  0.26289849  0.64043585  0.69620959     0.03100
C1555       C  0.24282227  0.64174567  0.77389404     0.37800
C1556       C  0.27024688  0.60861322  0.67053328     0.37800
C1557       C  0.27032606  0.65566057  0.66973295     0.36200
C1558       C  0.23862088  0.59341550  0.77248748     0.36200
N1559       N  0.27614640  0.66766704  0.64849816    -0.38600
N1560       N  0.23160442  0.58102598  0.79340820    -0.38600
N1561       N  0.27666343  0.60234776  0.64993736    -0.38100
N1562       N  0.23850127  0.64796360  0.79594564    -0.38100
C1563       C  0.21104340  0.68794153  0.80879210    -0.04700
C1564       C  0.19679517  0.66355932  0.79535310    -0.01900
C1565       C  0.18388511  0.64097533  0.81256259     0.03100
C1566       C  0.18431283  0.64281574  0.84314695    -0.04700
C1567       C  0.19401445  0.66734125  0.85584695    -0.01800
C1568       C  0.20818516  0.68987891  0.83891398     0.03100
C1569       C  0.19801101  0.66155471  0.76401730     0.37800
C1570       C  0.19198235  0.66927396  0.88702208     0.37800
C1571       C  0.22223541  0.71463039  0.85312784     0.36200
C1572       C  0.17224125  0.61593293  0.79890837     0.36200
N1573       N  0.23354543  0.73405725  0.86519253    -0.38600
N1574       N  0.16297353  0.59614322  0.78748053    -0.38600
N1575       N  0.19018832  0.67072919  0.91188829    -0.38100
N1576       N  0.19918395  0.66002339  0.73905007    -0.38100
C1577       C  0.18504475  0.53440341  0.85120234    -0.04700
C1578       C  0.17795430  0.52939479  0.82173734    -0.01900
C1579       C  0.18967052  0.51925957  0.80363024     0.03100
C1580       C  0.20839891  0.51409616  0.81514751    -0.04700
C1581       C  0.21191026  0.51495551  0.84556336    -0.01800
C1582       C  0.19969944  0.52449557  0.86361998     0.03100
C1583       C  0.16004926  0.53630251  0.80974497     0.37800
C1584       C  0.20934543  0.98827707  0.84908712     0.37800
C1585       C  0.19238080  0.01368812  0.88874061     0.36200
C1586       C  0.18489581  0.51715019  0.77257440     0.36200
N1587       N  0.19327875  0.01122029  0.91360468    -0.38600
N1588       N  0.18125107  0.51565049  0.74774945    -0.38600
N1589       N  0.21475589  0.97360467  0.85771472    -0.38100
N1590       N  0.14535867  0.54131734  0.80014635    -0.38100
C1591       C  0.31069664  0.73274838  0.94100911    -0.04700
C1592       C  0.29610890  0.72454213  0.91505621    -0.01900
C1593       C  0.27413526  0.69986548  0.91323220     0.03100
C1594       C  0.26534656  0.68343256  0.93802379    -0.04700
C1595       C  0.27678920  0.69413537  0.96539337    -0.01800
C1596       C  0.29946105  0.71874343  0.96680175     0.03100
C1597       C  0.30443307  0.74080554  0.88930887     0.37800
C1598       C  0.26633182  0.67965722  0.99205785     0.37800
C1599       C  0.31155947  0.72910852  0.99465172     0.36200
C1600       C  0.26222773  0.69114826  0.88483290     0.36200
N1601       N  0.32103178  0.73746863  0.01694257    -0.38600
N1602       N  0.25373514  0.68426410  0.86182832    -0.38600
N1603       N  0.25795247  0.66829171  0.01346192    -0.38100
N1604       N  0.31061507  0.75299490  0.86823974    -0.38100
C1605       C  0.36033250  0.81921483  0.84790021    -0.04700
C1606       C  0.33523301  0.81207116  0.85731169    -0.01900
C1607       C  0.31473945  0.80247033  0.83702494     0.03100
C1608       C  0.31947747  0.79980257  0.80763115    -0.04700
C1609       C  0.34527920  0.81276784  0.79772499    -0.01800
C1610       C  0.36580031  0.82227727  0.81792765     0.03100
C1611       C  0.33021755  0.81212892  0.88814493     0.37800
C1612       C  0.35046661  0.81439402  0.76681493     0.37800
C1613       C  0.39211395  0.83255091  0.80806137     0.36200
C1614       C  0.28877004  0.79410167  0.84653223     0.36200
N1615       N  0.41312345  0.84069773  0.80024011    -0.38600
N1616       N  0.26818954  0.78815456  0.85420841    -0.38600
N1617       N  0.35470897  0.81582074  0.74214023    -0.38100
N1618       N  0.32637369  0.81215635  0.91279948    -0.38100
C1619       C  0.39558917  0.65511278  0.72271915    -0.04700
C1620       C  0.37548029  0.65158178  0.74153571    -0.01900
C1621       C  0.35241923  0.62785771  0.74262049     0.03100
C1622       C  0.34902239  0.60721374  0.72486771    -0.04700
C1623       C  0.36878217  0.61075512  0.70555521    -0.01800
C1624       C  0.39198578  0.63486460  0.70417712     0.03100
C1625       C  0.37812122  0.67262335  0.75955948     0.37800
C1626       C  0.36578039  0.58923549  0.68845330     0.37800
C1627       C  0.41230799  0.63858138  0.68436386     0.36200
C1628       C  0.33210151  0.62501178  0.76213527     0.36200
N1629       N  0.42851568  0.64159503  0.66847211    -0.38600
N1630       N  0.31632689  0.62315324  0.77800837    -0.38600
N1631       N  0.36338273  0.57189793  0.67510178    -0.38100
N1632       N  0.38007132  0.68919190  0.77406472    -0.38100
C1633       C  0.35666620  0.74943432  0.71453578    -0.04700
C1634       C  0.36393836  0.74233369  0.68829287    -0.01900
C1635       C  0.38748749  0.74237626  0.68678521     0.03100
C1636       C  0.40458228  0.75115991  0.71065629    -0.04700
C1637       C  0.39954889  0.76290599  0.73417818    -0.01800
C1638       C  0.37529974  0.76076292  0.73702679     0.03100
C1639       C  0.34662349  0.73314044  0.66353042     0.37800
C1640       C  0.41911078  0.77650423  0.75625602     0.37800
C1641       C  0.36923869  0.76829270  0.76447623     0.36200
C1642       C  0.39314340  0.73165308  0.66160027     0.36200
N1643       N  0.36457407  0.77337721  0.78702978    -0.38600
N1644       N  0.39755700  0.72304260  0.64146556    -0.38600
N1645       N  0.43446186  0.78772513  0.77391780    -0.38100
N1646       N  0.33295242  0.72600774  0.64364338    -0.38100
C1647       C  0.48818170  0.79094070  0.81416397    -0.04700
C1648       C  0.48904998  0.81477323  0.81159061    -0.01900
C1649       C  0.47552830  0.82156686  0.83188470     0.03100
C1650       C  0.45798385  0.80280046  0.85175509    -0.04700
C1651       C  0.45751501  0.77897249  0.85339944    -0.01800
C1652       C  0.47589930  0.77563879  0.83852845     0.03100
C1653       C  0.99573415  0.82437191  0.78876719     0.37800
C1654       C  0.43562387  0.75583527  0.86507120     0.37800
C1655       C  0.47852314  0.75350967  0.84489773     0.36200
C1656       C  0.47733008  0.84639063  0.82990677     0.36200
N1657       N  0.48057798  0.73595641  0.85060620    -0.38600
N1658       N  0.97144774  0.85808094  0.83041315    -0.38600
N1659       N  0.41796885  0.73650386  0.87226414    -0.38100
N1660       N  0.00434005  0.83680320  0.76807649    -0.38100
C1661       C  0.31512974  0.58184999  0.94175673    -0.04700
C1662       C  0.30058386  0.57536783  0.91581809    -0.01900
C1663       C  0.27865523  0.57780590  0.91390273     0.03100
C1664       C  0.26967529  0.58506571  0.93871742    -0.04700
C1665       C  0.28180364  0.58707645  0.96595201    -0.01800
C1666       C  0.30415157  0.58488439  0.96747363     0.03100
C1667       C  0.30875939  0.56728334  0.89020298     0.37800
C1668       C  0.27290183  0.59352699  0.99213670     0.37800
C1669       C  0.31596110  0.58621095  0.99539626     0.36200
C1670       C  0.26704203  0.57476442  0.88532395     0.36200
N1671       N  0.32514411  0.58694510  0.01776515    -0.38600
N1672       N  0.25875845  0.57314001  0.86219099    -0.38600
N1673       N  0.26601433  0.59884790  0.01308686    -0.38100
N1674       N  0.31474692  0.56110420  0.86923145    -0.38100
C1675       C  0.35796559  0.53982192  0.85032372    -0.04700
C1676       C  0.36266045  0.54092838  0.82025005    -0.01900
C1677       C  0.34168575  0.53026958  0.80057580     0.03100
C1678       C  0.31610367  0.51592218  0.81115472    -0.04700
C1679       C  0.31230621  0.50911962  0.84077731    -0.01800
C1680       C  0.33305699  0.52179466  0.86056930     0.03100
C1681       C  0.38893090  0.55282885  0.80984319     0.37800
C1682       C  0.28705893  0.48948874  0.85071150     0.37800
C1683       C  0.32862127  0.51706752  0.89143752     0.36200
C1684       C  0.34399787  0.03254092  0.77138723     0.36200
N1685       N  0.32485479  0.51293916  0.91605321    -0.38600
N1686       N  0.34723971  0.03417021  0.74649068    -0.38600
N1687       N  0.26712042  0.47313924  0.85848745    -0.38100
N1688       N  0.40991840  0.56162782  0.80164168    -0.38100
C1689       C  0.40779097  0.68166429  0.94780568    -0.04700
C1690       C  0.42771288  0.70433481  0.93485795    -0.01900
C1691       C  0.42799815  0.72772882  0.93803751     0.03100
C1692       C  0.40680136  0.72780445  0.95086205    -0.04700
C1693       C  0.38843334  0.70601918  0.96635034    -0.01800
C1694       C  0.38935434  0.68317232  0.96552244     0.03100
C1695       C  0.44736572  0.70348093  0.91757054     0.37800
C1696       C  0.36768933  0.70661009  0.98174377     0.37800
C1697       C  0.37009674  0.66089473  0.98137060     0.36200
C1698       C  0.45033356  0.75183911  0.92919739     0.36200
N1699       N  0.35470630  0.64352310  0.99454379    -0.38600
N1700       N  0.46836900  0.77115291  0.92269357    -0.38600
N1701       N  0.35118302  0.70707072  0.99407841    -0.38100
N1702       N  0.46282566  0.70265741  0.90344518    -0.38100
C1703       C  0.45868339  0.64592635  0.84376256    -0.04700
C1704       C  0.44971006  0.64369817  0.81479756    -0.01900
C1705       C  0.46372154  0.66349353  0.79457577     0.03100
C1706       C  0.48329121  0.68769537  0.80419658    -0.04700
C1707       C  0.49400903  0.68951357  0.83199773    -0.01800
C1708       C  0.48248361  0.66800973  0.85120909     0.03100
C1709       C  0.42443614  0.62297843  0.80634215     0.37800
C1710       C  0.01658813  0.70812727  0.83227318     0.37800
C1711       C  0.49436468  0.66906219  0.87888368     0.36200
C1712       C  0.45773344  0.65929805  0.76383629     0.36200
N1713       N  0.00612462  0.67172613  0.89844812    -0.38600
N1714       N  0.45371460  0.65570994  0.73917225    -0.38600
N1715       N  0.03656586  0.72646707  0.83528303    -0.38100
N1716       N  0.40390654  0.60759364  0.79905782    -0.38100
C1717       C  0.34886260  0.97461283  0.00785763    -0.04700
C1718       C  0.33568580  0.98735759  0.99938237    -0.01900
C1719       C  0.35122809  0.51406297  0.98804976     0.03100
C1720       C  0.37736102  0.52492208  0.97982589    -0.04700
C1721       C  0.39036415  0.51146172  0.98650674    -0.01800
C1722       C  0.37533431  0.98581042  0.00116500     0.03100
C1723       C  0.30776729  0.97396279  0.99875149     0.37800
C1724       C  0.41670736  0.52149309  0.97694177     0.37800
C1725       C  0.38848627  0.97173217  0.00720074     0.36200
C1726       C  0.33692485  0.52687758  0.98126015     0.36200
N1727       N  0.39894086  0.96042678  0.01182658    -0.38600
N1728       N  0.32463081  0.53620598  0.97627611    -0.38600
N1729       N  0.43768713  0.52931604  0.96918061    -0.38100
N1730       N  0.28565609  0.96367786  0.99596458    -0.38100
C1731       C  0.35480926  0.87889761  0.00599244    -0.04700
C1732       C  0.36377940  0.88594561  0.97697649    -0.01900
C1733       C  0.37618254  0.87448964  0.96257318     0.03100
C1734       C  0.38165191  0.85738007  0.97772222    -0.04700
C1735       C  0.37620800  0.85362195  0.00805921    -0.01800
C1736       C  0.36169495  0.86312841  0.02165735     0.03100
C1737       C  0.36043789  0.90523004  0.96184250     0.37800
C1738       C  0.38588678  0.84030318  0.02567859     0.37800
C1739       C  0.35258759  0.85521850  0.05121692     0.36200
C1740       C  0.38226104  0.87969144  0.93189600     0.36200
N1741       N  0.34517037  0.84863039  0.07467347    -0.38600
N1742       N  0.38701333  0.88387576  0.90741222    -0.38600
N1743       N  0.39379605  0.82986543  0.03971774    -0.38100
N1744       N  0.35789321  0.92073286  0.94991496    -0.38100
C1745       C  0.28197197  0.83673829  0.12685378    -0.04700
C1746       C  0.29953583  0.84149574  0.15004319    -0.01900
C1747       C  0.29214615  0.82431111  0.17425021     0.03100
C1748       C  0.26752050  0.80175786  0.17525495    -0.04700
C1749       C  0.25107350  0.79575460  0.15095442    -0.01800
C1750       C  0.25788562  0.81292680  0.12739236     0.03100
C1751       C  0.32459404  0.86480117  0.15023161     0.37800
C1752       C  0.22552377  0.77277551  0.15114425     0.37800
C1753       C  0.23815957  0.80637663  0.10532964     0.36200
C1754       C  0.30896455  0.83134292  0.19931238     0.36200
N1755       N  0.22174496  0.80137406  0.08887405    -0.38600
N1756       N  0.32254075  0.83756589  0.21923229    -0.38600
N1757       N  0.20474788  0.75524153  0.15102192    -0.38100
N1758       N  0.34466636  0.88339119  0.15047998    -0.38100
C1759       C  0.02476415  0.65297923  0.01739896    -0.04700
C1760       C  0.01889873  0.66722112  0.99707349    -0.01900
C1761       C  0.49427169  0.65541178  0.98077681     0.03100
C1762       C  0.47598181  0.62926648  0.98468222    -0.04700
C1763       C  0.48088031  0.61460734  0.00484040    -0.01800
C1764       C  0.00522542  0.62740364  0.02423325     0.03100
C1765       C  0.03785290  0.69345386  0.98892076     0.37800
C1766       C  0.46058211  0.58872973  0.01200467     0.37800
C1767       C  0.01044370  0.61163208  0.04373333     0.36200
C1768       C  0.48757171  0.67156072  0.96399927     0.36200
N1769       N  0.01457474  0.59890615  0.05908221    -0.38600
N1770       N  0.48224324  0.68478276  0.95130705    -0.38600
N1771       N  0.44423968  0.56834922  0.01847501    -0.38100
N1772       N  0.05285711  0.71418680  0.98171548    -0.38100
C1773       C  0.14723592  0.62160068  0.97625609    -0.04700
C1774       C  0.12036682  0.60740832  0.98187840    -0.01900
C1775       C  0.10864255  0.61826590  0.99887873     0.03100
C1776       C  0.12374822  0.64316917  0.01058799    -0.04700
C1777       C  0.15060062  0.65698176  0.00543327    -0.01800
C1778       C  0.16219606  0.64655069  0.98799482     0.03100
C1779       C  0.10484109  0.58152977  0.97055419     0.37800
C1780       C  0.16661151  0.68215232  0.01823389     0.37800
C1781       C  0.18944913  0.66223896  0.98109687     0.36200
C1782       C  0.08101691  0.60421080  0.00360081     0.36200
N1783       N  0.21109533  0.67516549  0.97557548    -0.38600
N1784       N  0.05895459  0.59306594  0.00736751    -0.38600
N1785       N  0.17981898  0.70218850  0.02832413    -0.38100
N1786       N  0.09251643  0.56088419  0.96144628    -0.38100
C1787       C  0.23464174  0.81101526  0.00463486    -0.04700
C1788       C  0.21292637  0.80166701  0.98673353    -0.01900
C1789       C  0.19074635  0.77797264  0.99345629     0.03100
C1790       C  0.19097919  0.76345682  0.01784325    -0.04700
C1791       C  0.21490276  0.77055260  0.03116211    -0.01800
C1792       C  0.23692210  0.79412770  0.02381869     0.03100
C1793       C  0.21309385  0.81714222  0.96252707     0.37800
C1794       C  0.21673847  0.75526376  0.05431589     0.37800
C1795       C  0.26136724  0.80258425  0.03835756     0.36200
C1796       C  0.16722671  0.77057701  0.97739649     0.36200
N1797       N  0.28090958  0.80943060  0.04984124    -0.38600
N1798       N  0.14848747  0.76486302  0.96464185    -0.38600
N1799       N  0.21894610  0.74392556  0.07330422    -0.38100
N1800       N  0.21330399  0.82900564  0.94261903    -0.38100
C1801       C  0.15133457  0.68119510  0.14078184    -0.04700
C1802       C  0.14048806  0.67408081  0.16882218    -0.01900
C1803       C  0.15682534  0.68210371  0.19339935     0.03100
C1804       C  0.18364416  0.69879915  0.18997739    -0.04700
C1805       C  0.19438828  0.70050699  0.16214628    -0.01800
C1806       C  0.17799445  0.69094725  0.13765573     0.03100
C1807       C  0.11272726  0.66010965  0.17257789     0.37800
C1808       C  0.22210576  0.71398482  0.15818662     0.37800
C1809       C  0.18816457  0.69073562  0.10926565     0.36200
C1810       C  0.14630894  0.67169573  0.22170247     0.36200
N1811       N  0.19604474  0.68953308  0.08674967    -0.38600
N1812       N  0.13718009  0.66178962  0.24359613    -0.38600
N1813       N  0.24422474  0.72490007  0.15493346    -0.38100
N1814       N  0.09058902  0.64890987  0.17570144    -0.38100
C1815       C  0.10541047  0.75212025  0.31718034    -0.04700
C1816       C  0.12616293  0.76339985  0.33687381    -0.01900
C1817       C  0.14687235  0.75881798  0.33385607     0.03100
C1818       C  0.14813232  0.74562032  0.30899159    -0.04700
C1819       C  0.12552433  0.73125966  0.29222446    -0.01800
C1820       C  0.10384408  0.73364330  0.29741577     0.03100
C1821       C  0.12678989  0.78043490  0.35938186     0.37800
C1822       C  0.12493095  0.71560279  0.26802719     0.37800
C1823       C  0.08044520  0.71820154  0.28101133     0.36200
C1824       C  0.16696081  0.76834814  0.35573545     0.36200
N1825       N  0.06191934  0.70540001  0.26783247    -0.38600
N1826       N  0.18255174  0.77530656  0.37370114    -0.38600
N1827       N  0.12407614  0.70350964  0.24812892    -0.38100
N1828       N  0.12771374  0.79402679  0.37765332    -0.38100
C1829       C  0.07281519  0.70543792  0.15347984    -0.04700
C1830       C  0.09017861  0.71932896  0.17615546    -0.01900
C1831       C  0.08316682  0.73042112  0.19862687     0.03100
C1832       C  0.05729902  0.72553596  0.20113129    -0.04700
C1833       C  0.03897178  0.70854328  0.18029886    -0.01800
C1834       C  0.04686844  0.69916644  0.15628236     0.03100
C1835       C  0.11606908  0.72301473  0.17608218     0.37800
C1836       C  0.50787723  0.69689026  0.18270630     0.37800
C1837       C  0.02849260  0.68399498  0.13383697     0.36200
C1838       C  0.10393163  0.74835189  0.21755610     0.36200
N1839       N  0.51036311  0.66989311  0.11436683    -0.38600
N1840       N  0.12082705  0.76290325  0.23199570    -0.38600
N1841       N  0.48619178  0.69004633  0.18519317    -0.38100
N1842       N  0.13675990  0.72629239  0.17611119    -0.38100
C1843       C  0.47362548  0.84444939  0.98554931    -0.04700
C1844       C  0.48043489  0.82884009  0.00200678    -0.01900
C1845       C  0.00200182  0.83931787  0.02291147     0.03100
C1846       C  0.01967873  0.86583789  0.01986648    -0.04700
C1847       C  0.01290348  0.88122284  0.00329150    -0.01800
C1848       C  0.49005609  0.87157554  0.98609507     0.03100
C1849       C  0.46475603  0.80098340  0.00080849     0.37800
C1850       C  0.02981293  0.90897459  0.00285070     0.37800
C1851       C  0.48274866  0.88821777  0.97127190     0.36200
C1852       C  0.00729865  0.82434060  0.04351040     0.36200
N1853       N  0.47693252  0.90150158  0.95947672    -0.38600
N1854       N  0.01118114  0.81255904  0.06056318    -0.38600
N1855       N  0.04300621  0.93113780  0.00287353    -0.38100
N1856       N  0.45246530  0.77875418  0.99974225    -0.38100
C1857       C  0.11546551  0.97063828  0.01128684    -0.04700
C1858       C  0.11196537  0.97111028  0.98088177    -0.01900
C1859       C  0.12528952  0.99438681  0.96503918     0.03100
C1860       C  0.14511062  0.52152326  0.97774713    -0.04700
C1861       C  0.14430137  0.52129256  0.00860430    -0.01800
C1862       C  0.13131597  0.99405836  0.02590730     0.03100
C1863       C  0.09448259  0.94746634  0.96561759     0.37800
C1864       C  0.15727815  0.54534157  0.02460571     0.37800
C1865       C  0.13390841  0.99434231  0.05733107     0.36200
C1866       C  0.12173562  0.99359307  0.93374604     0.36200
N1867       N  0.13572962  0.99476116  0.08240964    -0.38600
N1868       N  0.11872907  0.99277256  0.90881587    -0.38600
N1869       N  0.16777019  0.56451084  0.03737360    -0.38100
N1870       N  0.08061252  0.92863697  0.95342918    -0.38100
C1871       C  0.10937551  0.77750082  0.04119953    -0.04700
C1872       C  0.08571460  0.77655494  0.03657821    -0.01900
C1873       C  0.08510781  0.79964970  0.03424602     0.03100
C1874       C  0.10779046  0.82356480  0.03907143    -0.04700
C1875       C  0.13155601  0.82439584  0.04256831    -0.01800
C1876       C  0.13240027  0.80157802  0.04321489     0.03100
C1877       C  0.06178129  0.75205876  0.03766216     0.37800
C1878       C  0.15538045  0.84874441  0.04642180     0.37800
C1879       C  0.15710355  0.80305442  0.04723449     0.36200
C1880       C  0.06094561  0.79861410  0.02855825     0.36200
N1881       N  0.17686071  0.80456539  0.05084225    -0.38600
N1882       N  0.04157195  0.79750087  0.02353992    -0.38600
N1883       N  0.17463894  0.86774917  0.05001809    -0.38100
N1884       N  0.04258027  0.73263862  0.03935871    -0.38100
C1885       C  0.04099494  0.81067518  0.19159119    -0.04700
C1886       C  0.03631890  0.83140132  0.19181138    -0.01900
C1887       C  0.04527250  0.84947103  0.16847778     0.03100
C1888       C  0.05924714  0.84693590  0.14516699    -0.04700
C1889       C  0.05975969  0.82377685  0.14311150    -0.01800
C1890       C  0.05058657  0.80581005  0.16599125     0.03100
C1891       C  0.02246511  0.83419762  0.21587022     0.37800
C1892       C  0.06952968  0.81789769  0.11731873     0.37800
C1893       C  0.55043673  0.78145597  0.16283818     0.36200
C1894       C  0.04011306  0.87044693  0.16867365     0.36200
N1895       N  0.55246001  0.76344496  0.16078998    -0.38600
N1896       N  0.03530660  0.88676259  0.16876534    -0.38600
N1897       N  0.07700184  0.81214036  0.09727846    -0.38100
N1898       N  0.01102251  0.83642964  0.23470971    -0.38100
C1899       C  0.18630109  0.92010085  0.02139744    -0.04700
C1900       C  0.20944022  0.93550080  0.03700627    -0.01900
C1901       C  0.23127648  0.93332627  0.03161344     0.03100
C1902       C  0.22993792  0.91511163  0.01143493    -0.04700
C1903       C  0.20897872  0.90356382  0.99215211    -0.01800
C1904       C  0.18711121  0.90604524  0.99693216     0.03100
C1905       C  0.21057168  0.95186538  0.06059901     0.37800
C1906       C  0.20902158  0.88739854  0.96896197     0.37800
C1907       C  0.16454395  0.89132457  0.97881591     0.36200
C1908       C  0.25456439  0.94829900  0.04869936     0.36200
N1909       N  0.14655366  0.87939548  0.96439427    -0.38600
N1910       N  0.27316301  0.96046008  0.06213841    -0.38600
N1911       N  0.20901198  0.87473048  0.95011687    -0.38100
N1912       N  0.21272062  0.96487814  0.08007889    -0.38100
C1913       C  0.23886276  0.89134645  0.28197310    -0.04700
C1914       C  0.23507481  0.87757787  0.30821539    -0.01900
C1915       C  0.23507159  0.85409872  0.30817752     0.03100
C1916       C  0.23887402  0.84423341  0.28188749    -0.04700
C1917       C  0.24599774  0.85981469  0.25659868    -0.01800
C1918       C  0.24650639  0.88343131  0.25688042     0.03100
C1919       C  0.23013801  0.88683950  0.33511804     0.37800
C1920       C  0.25224701  0.85144086  0.22982464     0.37800
C1921       C  0.25520918  0.89972689  0.23122212     0.36200
C1922       C  0.22950182  0.83949933  0.33496609     0.36200
N1923       N  0.26242593  0.91259172  0.21069139    -0.38600
N1924       N  0.22522709  0.82812025  0.35652424    -0.38600
N1925       N  0.25698865  0.84496703  0.20818826    -0.38100
N1926       N  0.22651598  0.89425036  0.35676565    -0.38100
C1927       C  0.26435648  0.95950608  0.17221759    -0.04700
C1928       C  0.28967949  0.96372134  0.17119374    -0.01900
C1929       C  0.29686737  0.95201580  0.14911257     0.03100
C1930       C  0.27879898  0.93616370  0.12760456    -0.04700
C1931       C  0.25383694  0.93355733  0.12794256    -0.01800
C1932       C  0.24713099  0.94569852  0.14939334     0.03100
C1933       C  0.30900097  0.47876320  0.19532691     0.37800
C1934       C  0.23361438  0.91673338  0.10783318     0.37800
C1935       C  0.22131169  0.94219559  0.14897647     0.36200
C1936       C  0.32193360  0.95416262  0.15059051     0.36200
N1937       N  0.20052245  0.93863562  0.14852297    -0.38600
N1938       N  0.34269455  0.45431367  0.15495363    -0.38600
N1939       N  0.21686685  0.90293129  0.09275670    -0.38100
N1940       N  0.32368140  0.49146376  0.21296679    -0.38100
C1941       C  0.09899071  0.85257781  0.31617810    -0.04700
C1942       C  0.09971220  0.87066963  0.29636744    -0.01900
C1943       C  0.12333468  0.89271706  0.28968226     0.03100
C1944       C  0.14549673  0.89900149  0.30656213    -0.04700
C1945       C  0.14216629  0.88465982  0.33240522    -0.01800
C1946       C  0.11892473  0.86097668  0.33679961     0.03100
C1947       C  0.07631854  0.86556681  0.28162191     0.37800
C1948       C  0.16283628  0.89305934  0.35338805     0.37800
C1949       C  0.11554464  0.84525255  0.36207347     0.36200
C1950       C  0.12482990  0.90686405  0.26357329     0.36200
N1951       N  0.11247906  0.83297948  0.38267736    -0.38600
N1952       N  0.12535776  0.91693636  0.24196144    -0.38600
N1953       N  0.17910400  0.89984380  0.37050494    -0.38100
N1954       N  0.05762264  0.86202626  0.27036068    -0.38100
C1955       C  0.18167716  0.97899314  0.18859100    -0.04700
C1956       C  0.15520554  0.96888858  0.19366115    -0.01900
C1957       C  0.13754658  0.95785841  0.17053921     0.03100
C1958       C  0.14684625  0.96025399  0.14190841    -0.04700
C1959       C  0.17320719  0.97751245  0.13655322    -0.01800
C1960       C  0.19095237  0.98584211  0.15982600     0.03100
C1961       C  0.14643343  0.97061804  0.22235102     0.37800
C1962       C  0.18166713  0.98652227  0.10719552     0.37800
C1963       C  0.21969236  0.50262356  0.15373594     0.36200
C1964       C  0.11027354  0.94227013  0.17662111     0.36200
N1965       N  0.24159012  0.51385075  0.14884547    -0.38600
N1966       N  0.08852409  0.92972662  0.18181605    -0.38600
N1967       N  0.18831908  0.49791949  0.08402813    -0.38100
N1968       N  0.13906506  0.97264809  0.24483249    -0.38100
C1969       C  0.32080433  0.85667224  0.64646782    -0.04700
C1970       C  0.33507709  0.84460885  0.65340037    -0.01900
C1971       C  0.32315336  0.82072738  0.66806019     0.03100
C1972       C  0.29734539  0.80951388  0.67777771    -0.04700
C1973       C  0.28343329  0.82214920  0.67173322    -0.01800
C1974       C  0.29492234  0.84529484  0.65561499     0.03100
C1975       C  0.36211284  0.85667781  0.64548637     0.37800
C1976       C  0.25709856  0.81132655  0.68158293     0.37800
C1977       C  0.28035346  0.85795988  0.64941527     0.36200
C1978       C  0.33776490  0.80798083  0.67341305     0.36200
N1979       N  0.26879678  0.86809122  0.64441412    -0.38600
N1980       N  0.34953148  0.79789021  0.67728257    -0.38600
N1981       N  0.23612179  0.80332264  0.68934057    -0.38100
N1982       N  0.38370708  0.86618943  0.63940228    -0.38100
C1983       C  0.31965714  0.95774790  0.64962048    -0.04700
C1984       C  0.31052590  0.97205228  0.63461122    -0.01900
C1985       C  0.30067207  0.98548661  0.65002237     0.03100
C1986       C  0.29746114  0.98295357  0.68065426    -0.04700
C1987       C  0.30605146  0.96808630  0.69566158    -0.01800
C1988       C  0.31731746  0.95585659  0.68031691     0.03100
C1989       C  0.31110785  0.97304724  0.60306854     0.37800
C1990       C  0.30451512  0.96625792  0.72715990     0.37800
C1991       C  0.32564517  0.94050610  0.69618638     0.36200
C1992       C  0.29454054  0.00243736  0.63399377     0.36200
N1993       N  0.33223928  0.92824239  0.70889732    -0.38600
N1994       N  0.27358152  0.50269410  0.61970854    -0.38600
N1995       N  0.30343438  0.96476936  0.75226656    -0.38100
N1996       N  0.31094269  0.97352170  0.57792470    -0.38100
C1997       C  0.35883756  0.81388141  0.34594898    -0.04700
C1998       C  0.33498720  0.80037138  0.36088367    -0.01900
C1999       C  0.31160229  0.78809320  0.34527855     0.03100
C2000       C  0.31141487  0.79013688  0.31458004    -0.04700
C2001       C  0.33506486  0.80217872  0.29948933    -0.01800
C2002       C  0.35859252  0.81434772  0.31499396     0.03100
C2003       C  0.33403052  0.79967969  0.39245963     0.37800
C2004       C  0.33546311  0.80161250  0.26796383     0.37800
C2005       C  0.38242151  0.82731898  0.29857671     0.32600
C2006       C  0.28767105  0.77203086  0.36091267     0.36200
N2007       N  0.40118107  0.83794268  0.28505335    -0.38600
N2008       N  0.26862134  0.75896667  0.37326162    -0.38600
N2009       N  0.33624051  0.80076755  0.24287854    -0.38100
N2010       N  0.33302513  0.79901565  0.41760083    -0.38100
C2011       C  0.47848448  0.78291156  0.32104699    -0.04700
C2012       C  0.46758838  0.79445179  0.30401372    -0.01900
C2013       C  0.45873855  0.80964645  0.31739569     0.03100
C2014       C  0.45724116  0.81042718  0.34818423    -0.04700
C2015       C  0.46573568  0.79658908  0.36520849    -0.01800
C2016       C  0.47697736  0.78367980  0.35187348     0.03100
C2017       C  0.46557983  0.79091325  0.27274085     0.37800
C2018       C  0.46469778  0.79689554  0.39678649     0.37800
C2019       C  0.99146057  0.77404880  0.37289075     0.36200
C2020       C  0.45276683  0.82552621  0.29911239     0.36200
N2021       N  0.00135337  0.76597016  0.38758670    -0.38600
N2022       N  0.44918885  0.83874358  0.28396598    -0.38600
N2023       N  0.96664688  0.79830021  0.42464902    -0.38100
N2024       N  0.46326468  0.78737317  0.24790683    -0.38100
C2025       C  0.35247016  0.87365262  0.51270192    -0.04700
C2026       C  0.35152610  0.87593307  0.48226263    -0.01900
C2027       C  0.36076099  0.86365271  0.46375150     0.03100
C2028       C  0.37239718  0.85039276  0.47563592    -0.04700
C2029       C  0.36859256  0.84390806  0.50536869    -0.01800
C2030       C  0.35864312  0.85556676  0.52394411     0.03100
C2031       C  0.34337758  0.89277899  0.47001951     0.37800
C2032       C  0.37522225  0.82566207  0.51682696     0.37800
C2033       C  0.35674649  0.85057629  0.55488962     0.36200
C2034       C  0.36024807  0.86630460  0.43242919     0.36200
N2035       N  0.35509326  0.84637394  0.57957509    -0.38600
N2036       N  0.35979891  0.86831560  0.40743415    -0.38600
N2037       N  0.37960418  0.81045012  0.52615649    -0.38100
N2038       N  0.33713324  0.90629322  0.45974868    -0.38100
C2039       C  0.18694083  0.64035196  0.34633244    -0.04700
C2040       C  0.21386870  0.65778918  0.35022048    -0.01900
C2041       C  0.22632918  0.68168784  0.33541714     0.03100
C2042       C  0.21181705  0.68942312  0.31880756    -0.04700
C2043       C  0.18500258  0.67300746  0.31634976    -0.01800
C2044       C  0.17298780  0.64789778  0.32784465     0.03100
C2045       C  0.22913198  0.65149515  0.36922261     0.37800
C2046       C  0.16948246  0.68275828  0.30391479     0.37800
C2047       C  0.14646796  0.63001344  0.31973688     0.36200
C2048       C  0.25399662  0.69872708  0.33795099     0.36200
N2049       N  0.12565683  0.61553544  0.31228259    -0.38600
N2050       N  0.27607590  0.71227332  0.33986593    -0.38600
N2051       N  0.15722536  0.69113029  0.29517354    -0.38100
N2052       N  0.24147734  0.64698160  0.38475467    -0.38100
C2053       C  0.18996719  0.54057850  0.35136078    -0.04700
C2054       C  0.17525229  0.51513730  0.34075913    -0.01900
C2055       C  0.18702469  0.50432803  0.32435336     0.03100
C2056       C  0.21379879  0.51828757  0.31900199    -0.04700
C2057       C  0.22880318  0.54339208  0.33027267    -0.01800
C2058       C  0.21691922  0.55456693  0.34638183     0.03100
C2059       C  0.14533805  0.00353731  0.33542908     0.37800
C2060       C  0.25647617  0.55750424  0.32606580     0.37800
C2061       C  0.23247819  0.58054679  0.35734333     0.36200
C2062       C  0.16991363  0.98057838  0.30694430     0.36200
N2063       N  0.24520436  0.60125407  0.36608810    -0.38600
N2064       N  0.15737526  0.95991047  0.29806909    -0.38600
N2065       N  0.27862029  0.56910730  0.32312963    -0.38100
N2066       N  0.12305636  0.99191259  0.33668245    -0.38100
C2067       C  0.02109640  0.93247112  0.38460049    -0.04700
C2068       C  0.02992348  0.94664725  0.35828625    -0.01900
C2069       C  0.05380727  0.97017842  0.35746059     0.03100
C2070       C  0.06935908  0.97939430  0.38276901    -0.04700
C2071       C  0.06245034  0.96282572  0.40721006    -0.01800
C2072       C  0.03815617  0.94024948  0.40863339     0.03100
C2073       C  0.01346252  0.93861392  0.33277506     0.37800
C2074       C  0.07925635  0.96984389  0.43238156     0.37800
C2075       C  0.03000399  0.92685883  0.43631607     0.36200
C2076       C  0.06105182  0.98566940  0.33119642     0.36200
N2077       N  0.02361068  0.91742899  0.45901201    -0.38600
N2078       N  0.06685807  0.49530091  0.31040328    -0.38600
N2079       N  0.09180892  0.97513209  0.45309830    -0.38100
N2080       N  0.49898462  0.93688678  0.31454469    -0.38100
C2081       C  0.04383548  0.85529765  0.64516207    -0.04700
C2082       C  0.05868378  0.84348701  0.65034177    -0.01900
C2083       C  0.04857709  0.82087813  0.66735743     0.03100
C2084       C  0.02386802  0.81035308  0.67982519    -0.04700
C2085       C  0.00960540  0.82279898  0.67598174    -0.01800
C2086       C  0.01912854  0.84473756  0.65814027     0.03100
C2087       C  0.08484142  0.85514015  0.63924913     0.37800
C2088       C  0.98539725  0.81357449  0.69140243     0.37800
C2089       C  0.00312755  0.85597912  0.65282570     0.36200
C2090       C  0.06353961  0.80849140  0.67217918     0.36200
N2091       N  0.99014370  0.86474745  0.64869310    -0.38600
N2092       N  0.57468120  0.79841065  0.67605718    -0.38600
N2093       N  0.96641641  0.80675603  0.70402962    -0.38100
N2094       N  0.10568935  0.86455725  0.63051093    -0.38100
C2095       C  0.14442823  0.95374799  0.64830232    -0.04700
C2096       C  0.16843298  0.96547413  0.63369865    -0.01900
C2097       C  0.19171529  0.97513160  0.64950210     0.03100
C2098       C  0.19176343  0.97503845  0.68042190    -0.04700
C2099       C  0.16759940  0.96264327  0.69497080    -0.01800
C2100       C  0.14422675  0.95139733  0.67899339     0.03100
C2101       C  0.16950897  0.96839020  0.60226407     0.37800
C2102       C  0.16638036  0.96184834  0.72649392     0.37800
C2103       C  0.11989596  0.93643855  0.69423676     0.36200
C2104       C  0.21550826  0.98427556  0.63343637     0.36200
N2105       N  0.10046045  0.92426275  0.70625031    -0.38600
N2106       N  0.23420283  0.99124410  0.62012996    -0.38600
N2107       N  0.16647256  0.45302817  0.75194163    -0.38100
N2108       N  0.17052621  0.97081891  0.57724252    -0.38100
C2109       C  0.48696108  0.91912591  0.60385613    -0.04700
C2110       C  0.47080497  0.91102214  0.57884775    -0.01900
C2111       C  0.44704689  0.91030133  0.57905442     0.03100
C2112       C  0.43908992  0.91823950  0.60394454    -0.04700
C2113       C  0.45301657  0.92214936  0.63020705    -0.01800
C2114       C  0.47696325  0.92292073  0.63010213     0.03100
C2115       C  0.47888525  0.90476321  0.55183634     0.37800
C2116       C  0.44326972  0.92598106  0.65741518     0.37800
C2117       C  0.98822489  0.92520804  0.65952335     0.36200
C2118       C  0.43121131  0.90192849  0.55296112     0.36200
N2119       N  0.99972480  0.93014424  0.68106070    -0.38600
N2120       N  0.41908504  0.89553491  0.53184860    -0.38600
N2121       N  0.43541439  0.92861140  0.67930190    -0.38100
N2122       N  0.48503077  0.90041780  0.52974116    -0.38100
C2123       C  0.13329730  0.98264971  0.51987335    -0.04700
C2124       C  0.14253162  0.50753854  0.53367472    -0.01900
C2125       C  0.15163342  0.52803926  0.51358094     0.03100
C2126       C  0.15201060  0.52320216  0.48366476    -0.04700
C2127       C  0.14840434  0.00016991  0.47114666    -0.01800
C2128       C  0.13802679  0.97905639  0.49075322     0.03100
C2129       C  0.14171151  0.51218990  0.56449734     0.37800
C2130       C  0.15188709  0.99646255  0.44071127     0.37800
C2131       C  0.13104641  0.95361321  0.48077153     0.36200
C2132       C  0.15807873  0.55346026  0.52332817     0.36200
N2133       N  0.12604369  0.93340074  0.47283254    -0.38600
N2134       N  0.16300409  0.57363703  0.53133223    -0.38600
N2135       N  0.15481705  0.99362662  0.41642667    -0.38100
N2136       N  0.14112923  0.51577723  0.58912671    -0.38100
C2137       C  0.02407258  0.87275757  0.51371413    -0.04700
C2138       C  0.50016475  0.85850471  0.52532567    -0.01900
C2139       C  0.47823358  0.84607400  0.50712443     0.03100
C2140       C  0.48107755  0.84862478  0.47674968    -0.04700
C2141       C  0.00494223  0.85938421  0.46537816    -0.01800
C2142       C  0.02700882  0.87187511  0.48342386     0.03100
C2143       C  0.49689003  0.85765499  0.55656055     0.37800
C2144       C  0.00782432  0.86032659  0.43398846     0.37800
C2145       C  0.05244287  0.88528288  0.47058879     0.36200
C2146       C  0.45264608  0.83231190  0.51956769     0.36200
N2147       N  0.07252849  0.89568346  0.45968008    -0.38600
N2148       N  0.43226821  0.82104979  0.52969464    -0.38600
N2149       N  0.01007311  0.86109001  0.40895684    -0.38100
N2150       N  0.49401072  0.85687678  0.58145795    -0.38100
C2151       C  0.14773232  0.68482956  0.64786169    -0.04700
C2152       C  0.15639784  0.70820604  0.66264633    -0.01900
C2153       C  0.17932429  0.71904310  0.67930135     0.03100
C2154       C  0.19468954  0.70725877  0.68002005    -0.04700
C2155       C  0.18553012  0.68346489  0.66529983    -0.01800
C2156       C  0.16201629  0.67219284  0.64987953     0.03100
C2157       C  0.14090875  0.72041543  0.66188750     0.37800
C2158       C  0.19922197  0.66942179  0.66739140     0.37800
C2159       C  0.15189316  0.64684027  0.63712073     0.36200
C2160       C  0.18601032  0.74156415  0.69673985     0.36200
N2161       N  0.14391148  0.62652836  0.62730862    -0.38600
N2162       N  0.19048411  0.75900275  0.71125317    -0.38600
N2163       N  0.20991931  0.65802304  0.66896736    -0.38100
N2164       N  0.12849090  0.73007396  0.66126984    -0.38100
C2165       C  0.03993027  0.67608008  0.65303911    -0.04700
C2166       C  0.04105420  0.67994490  0.68345086    -0.01900
C2167       C  0.02922067  0.69269319  0.69620359     0.03100
C2168       C  0.01702296  0.70278798  0.67862161    -0.04700
C2169       C  0.01569202  0.69863808  0.64820858    -0.01800
C2170       C  0.02642916  0.68479151  0.63568026     0.03100
C2171       C  0.05486883  0.67130487  0.70177078     0.37800
C2172       C  0.50006498  0.70551158  0.63112190     0.37800
C2173       C  0.02237712  0.67847429  0.60498311     0.36200
C2174       C  0.02890011  0.69437360  0.72765520     0.36200
N2175       N  0.01867552  0.67326536  0.58058249    -0.38600
N2176       N  0.02882492  0.69522720  0.75278029    -0.38600
N2177       N  0.48872718  0.71208036  0.61659622    -0.38100
N2178       N  0.06586875  0.66443611  0.71643818    -0.38100
C2179       C  0.44133266  0.51415213  0.62121754    -0.04700
C2180       C  0.45944680  0.51390394  0.64090631    -0.01900
C2181       C  0.48461094  0.53532894  0.64278741     0.03100
C2182       C  0.49120116  0.55769923  0.62677204    -0.04700
C2183       C  0.47196142  0.55968909  0.61173855    -0.01800
C2184       C  0.44750804  0.53768854  0.60766038     0.03100
C2185       C  0.45519151  0.99993900  0.65457761     0.37800
C2186       C  0.47755428  0.58450878  0.60038408     0.37800
C2187       C  0.42946691  0.53973719  0.58884116     0.36200
C2188       C  0.99743573  0.54393151  0.66946850     0.36200
N2189       N  0.41646065  0.54314902  0.57323142    -0.38600
N2190       N  0.01043709  0.54659722  0.68927265    -0.38600
N2191       N  0.48191116  0.60436379  0.59173125    -0.38100
N2192       N  0.45067747  0.98432870  0.67198360    -0.38100
C2193       C  0.08178475  0.51248677  0.61943999    -0.04700
C2194       C  0.07764232  0.52000547  0.64735286    -0.01900
C2195       C  0.08064012  0.54472725  0.65123611     0.03100
C2196       C  0.08972951  0.56252593  0.62814001    -0.04700
C2197       C  0.09922283  0.55680472  0.60303275    -0.01800
C2198       C  0.09287796  0.53145657  0.59732020     0.03100
C2199       C  0.06821735  0.50192366  0.67140565     0.37800
C2200       C  0.11394049  0.57667966  0.58175866     0.37800
C2201       C  0.09963161  0.02857872  0.56534126     0.36200
C2202       C  0.07311396  0.55136141  0.67827417     0.36200
N2203       N  0.10207186  0.02399656  0.54154247    -0.38600
N2204       N  0.06727627  0.55671764  0.69995582    -0.38600
N2205       N  0.12623351  0.59190395  0.56441664    -0.38100
N2206       N  0.06085458  0.48761603  0.69073389    -0.38100
C2207       C  0.14302350  0.62275358  0.47495896    -0.04700
C2208       C  0.12282342  0.62776987  0.46970916    -0.01900
C2209       C  0.11347924  0.63654084  0.49224733     0.03100
C2210       C  0.12445187  0.64054059  0.52017559    -0.04700
C2211       C  0.14786462  0.64067193  0.52370398    -0.01800
C2212       C  0.15727839  0.63184893  0.50092243     0.03100
C2213       C  0.11030415  0.62203074  0.44161800     0.37800
C2214       C  0.16187525  0.64935678  0.55080689     0.37800
C2215       C  0.18071982  0.63097966  0.50464551     0.36200
C2216       C  0.09108067  0.63914421  0.48718380     0.36200
N2217       N  0.19964997  0.63062129  0.50737402    -0.38600
N2218       N  0.07328523  0.64118438  0.48264260    -0.38600
N2219       N  0.17351037  0.65655060  0.57220050    -0.38100
N2220       N  0.10004911  0.61741427  0.41933633    -0.38100
C2221       C  0.46048301  0.63669133  0.34773328    -0.04700
C2222       C  0.47507038  0.64150429  0.32163449    -0.01900
C2223       C  0.48570676  0.66554457  0.30750681     0.03100
C2224       C  0.48350195  0.68562381  0.32000305    -0.04700
C2225       C  0.46766517  0.68055501  0.34457550    -0.01800
C2226       C  0.45604783  0.65626699  0.35828822     0.03100
C2227       C  0.47953207  0.62209038  0.30884380     0.37800
C2228       C  0.46114514  0.69946463  0.35405134     0.37800
C2229       C  0.43851231  0.65141555  0.38236040     0.36200
C2230       C  0.49801822  0.66916355  0.27936573     0.36200
N2231       N  0.42447264  0.64767522  0.40140292    -0.38600
N2232       N  0.00849433  0.67196306  0.25672001    -0.38600
N2233       N  0.45486904  0.71379730  0.36146170    -0.38100
N2234       N  0.48304476  0.60668038  0.29835452    -0.38100
C2235       C  0.31291198  0.51306728  0.30741447    -0.04700
C2236       C  0.32811442  0.54023885  0.30897168    -0.01900
C2237       C  0.35061956  0.55200612  0.32631182     0.03100
C2238       C  0.35868983  0.53669093  0.34091144    -0.04700
C2239       C  0.34446872  0.50964151  0.33759878    -0.01800
C2240       C  0.32154391  0.49787441  0.32138758     0.03100
C2241       C  0.32077530  0.55615654  0.29270478     0.37800
C2242       C  0.35337586  0.49361360  0.35078467     0.37800
C2243       C  0.30714711  0.46998308  0.31876128     0.36200
C2244       C  0.36591529  0.57983588  0.32834387     0.36200
N2245       N  0.29584659  0.44775013  0.31700941    -0.38600
N2246       N  0.37812013  0.60204763  0.32999841    -0.38600
N2247       N  0.36028099  0.48053598  0.36081247    -0.38100
N2248       N  0.31520951  0.56886138  0.27926168    -0.38100
C2249       C  0.41926996  0.93160535  0.38330407    -0.04700
C2250       C  0.42216725  0.94418224  0.35623565    -0.01900
C2251       C  0.41794226  0.96519541  0.35436022     0.03100
C2252       C  0.41095226  0.97376419  0.37952025    -0.04700
C2253       C  0.40269820  0.95759119  0.40435839    -0.01800
C2254       C  0.40864849  0.93805756  0.40710804     0.03100
C2255       C  0.43202895  0.93753840  0.33097843     0.37800
C2256       C  0.38991153  0.96195797  0.42859091     0.37800
C2257       C  0.40635191  0.92702862  0.43587233     0.36200
C2258       C  0.42153137  0.97824745  0.32672159     0.36200
N2259       N  0.40556829  0.91962683  0.45929591    -0.38600
N2260       N  0.42426438  0.98846105  0.30455851    -0.38600
N2261       N  0.36494281  0.45457569  0.42833550    -0.38100
N2262       N  0.44001571  0.93240377  0.31081345    -0.38100
C2263       C  0.01670679  0.62053403  0.52407206    -0.04700
C2264       C  0.00053858  0.59358016  0.51915680    -0.01900
C2265       C  0.47341279  0.58383147  0.50657841     0.03100
C2266       C  0.47334694  0.60028129  0.48483806    -0.04700
C2267       C  0.99091200  0.62795227  0.48758163    -0.01800
C2268       C  0.01115521  0.63762163  0.50863742     0.03100
C2269       C  0.49710240  0.57236947  0.54005180     0.37800
C2270       C  0.98697251  0.64545080  0.46965475     0.37800
C2271       C  0.02776120  0.66514050  0.51205875     0.36200
C2272       C  0.45269122  0.55700150  0.50782823     0.36200
N2273       N  0.04104752  0.68717964  0.51453093    -0.38600
N2274       N  0.43658919  0.53557374  0.50903736    -0.38600
N2275       N  0.98371449  0.65928958  0.45520044    -0.38100
N2276       N  0.49768179  0.55493604  0.54973815    -0.38100
C2277       C  0.36858769  0.51562164  0.47616166    -0.04700
C2278       C  0.37286852  0.52279480  0.50572164    -0.01900
C2279       C  0.36502685  0.00597477  0.52754015     0.03100
C2280       C  0.35072870  0.97991364  0.51908881    -0.04700
C2281       C  0.34149390  0.97426955  0.49034083    -0.01800
C2282       C  0.35219254  0.99384776  0.46882792     0.03100
C2283       C  0.38974426  0.54951516  0.51351698     0.37800
C2284       C  0.32153467  0.94837889  0.48302080     0.37800
C2285       C  0.34464080  0.98766446  0.43871426     0.36200
C2286       C  0.36225446  0.51027691  0.55781803     0.36200
N2287       N  0.33848593  0.98254077  0.41469945    -0.38600
N2288       N  0.36188737  0.51514885  0.58208650    -0.38600
N2289       N  0.30499704  0.92786171  0.47738837    -0.38100
N2290       N  0.40325805  0.57090619  0.51961252    -0.38100
C2291       C  0.00898414  0.55879063  0.37258802    -0.04700
C2292       C  0.01076861  0.53678024  0.37887327    -0.01900
C2293       C  0.03487452  0.53875099  0.38164835     0.03100
C2294       C  0.05776635  0.56221709  0.37565716    -0.04700
C2295       C  0.05600758  0.58358442  0.36595923    -0.01800
C2296       C  0.03165861  0.58205171  0.36509419     0.03100
C2297       C  0.98779548  0.51186022  0.38377937     0.37800
C2298       C  0.07909409  0.60772199  0.35914483     0.37800
C2299       C  0.03024959  0.60484516  0.35850888     0.36200
C2300       C  0.03572948  0.51662389  0.39281645     0.36200
N2301       N  0.02919787  0.62309918  0.35337825    -0.38600
N2302       N  0.03524867  0.49872581  0.40267987    -0.38600
N2303       N  0.09714194  0.62747961  0.35409662    -0.38100
N2304       N  0.46860600  0.49068318  0.39275873    -0.38100
Fe2305     Fe  0.94217488  0.04492774  0.42496633     1.65800
Fe2306     Fe  0.93573221  0.05670150  0.35623695     1.73200
Fe2307     Fe  0.91439613  0.07933312  0.41170963     1.54400
O2308       O  0.88708906  0.04857724  0.43639288    -0.81100
O2309       O  0.94291563  0.09336497  0.34676541    -0.79400
O2310       O  0.91367360  0.03728035  0.45554835    -0.83600
O2311       O  0.96658539  0.08054385  0.44032611    -0.78400
O2312       O  0.88715777  0.06521241  0.37746295    -0.80200
O2313       O  0.97522440  0.07113972  0.36036862    -0.83000
C2314       C  0.95994270  0.09371144  0.45519609     0.97800
C2315       C  0.89215470  0.03636403  0.45517255     1.05200
O2316       O  0.93035282  0.06017075  0.39735740    -1.11900
O2317       O  0.92839665  0.01899673  0.36086301    -0.74400
O2318       O  0.91889366  0.00954731  0.40753234    -0.77900
O2319       O  0.93961319  0.09457601  0.44885760    -0.78600
C2320       C  0.91983376  0.00272897  0.38165268     0.96700
O2321       O  0.97224597  0.04944797  0.40031247    -0.76500
O2322       O  0.89751327  0.04169565  0.34901379    -0.81700
C2323       C  0.94667461  0.11294356  0.36120372     0.99300
C2324       C  0.88185072  0.04853031  0.35737272     1.05200
O2325       O  0.94012020  0.11122051  0.38778757    -0.77300
C2326       C  0.98439382  0.06144911  0.37777865     1.03500
Fe2327     Fe  0.57012929  0.12510985  0.63703723     1.65800
Fe2328     Fe  0.56433878  0.10668518  0.56753333     1.73200
Fe2329     Fe  0.58634092  0.16831977  0.58070297     1.54400
O2330       O  0.56770011  0.17756627  0.61201122    -0.81100
O2331       O  0.60187718  0.12420521  0.55407410    -0.79400
O2332       O  0.55280340  0.14659007  0.64571355    -0.83600
O2333       O  0.60588871  0.15601322  0.64573467    -0.78400
O2334       O  0.55227729  0.15503213  0.55529180    -0.80200
O2335       O  0.57011532  0.08243569  0.59304787    -0.83000
C2336       C  0.62305077  0.17538271  0.63179910     0.97800
C2337       C  0.55491621  0.16700308  0.63494165     1.05200
O2338       O  0.57393504  0.13364649  0.59578198    -1.11900
O2339       O  0.52688491  0.08945903  0.58254328    -0.74400
O2340       O  0.53355279  0.09324260  0.63071343    -0.77900
O2341       O  0.61936768  0.18248198  0.60685141    -0.78600
C2342       C  0.51890611  0.08328337  0.60865520     0.96700
O2343       O  0.58782139  0.10281386  0.63393640    -0.76500
O2344       O  0.55778754  0.12588558  0.53484644    -0.81700
C2345       C  0.61364416  0.14622596  0.54208702     0.99300
C2346       C  0.54462928  0.13654601  0.53735975     1.05200
O2347       O  0.60747457  0.16337285  0.54687544    -0.77300
C2348       C  0.58322486  0.08531844  0.61554917     1.03500
Fe2349     Fe  0.55812892  0.44805397  0.56500002     1.65800
Fe2350     Fe  0.56280724  0.43426204  0.63606069     1.73200
Fe2351     Fe  0.58699786  0.41324196  0.58126305     1.54400
O2352       O  0.56037431  0.39307331  0.54814586    -0.81100
O2353       O  0.60021707  0.44490311  0.64801143    -0.79400
O2354       O  0.54248276  0.41658448  0.53757913    -0.83600
O2355       O  0.59309785  0.46560099  0.54432859    -0.78400
O2356       O  0.56455402  0.38186958  0.60788534    -0.80200
O2357       O  0.57482563  0.47299536  0.63460716    -0.83000
C2358       C  0.61215721  0.46226652  0.54189621     0.97800
C2359       C  0.54437568  0.39676957  0.53399543     1.05200
O2360       O  0.56932944  0.43179934  0.59418706    -1.11900
O2361       O  0.52422059  0.42357979  0.62903429    -0.74400
O2362       O  0.52241283  0.43318802  0.58280372    -0.77900
O2363       O  0.61248906  0.44314143  0.55328711    -0.78600
C2364       C  0.51171858  0.42456811  0.60717424     0.96700
O2365       O  0.57131538  0.48129512  0.58854701    -0.76500
O2366       O  0.55061564  0.39634181  0.64389993    -0.81700
C2367       C  0.61775871  0.44142588  0.63747109     0.99300
C2368       C  0.55251614  0.37857662  0.63168673     1.05200
O2369       O  0.61500753  0.42994982  0.61337239    -0.77300
C2370       C  0.57701475  0.48850539  0.61470248     1.03500
Fe2371     Fe  0.62852310  0.06152373  0.36321755     1.65800
Fe2372     Fe  0.61173743  0.05186625  0.43465747     1.73200
Fe2373     Fe  0.67566157  0.08705678  0.41667934     1.54400
O2374       O  0.68584388  0.06721477  0.38771154    -0.81100
O2375       O  0.62704637  0.08593207  0.45663610    -0.79400
O2376       O  0.65490139  0.05059710  0.35401511    -0.83600
O2377       O  0.65468232  0.09874110  0.35198741    -0.78400
O2378       O  0.67262134  0.06054747  0.44805466    -0.80200
O2379       O  0.58746329  0.06133521  0.41337218    -0.83000
C2380       C  0.67513190  0.11743162  0.36227235     0.97800
C2381       C  0.67569685  0.05382849  0.36494782     1.05200
O2382       O  0.63870131  0.06697314  0.40478791    -1.11900
O2383       O  0.59337531  0.01640843  0.41542915    -0.74400
O2384       O  0.60098362  0.02291574  0.36811426    -0.77900
O2385       O  0.68448988  0.11596237  0.38647771    -0.78600
C2386       C  0.58951989  0.00818435  0.38950378     0.96700
O2387       O  0.60012323  0.07145843  0.36732458    -0.76500
O2388       O  0.63108896  0.03887271  0.45981860    -0.81700
C2389       C  0.64883025  0.10628088  0.45927461     0.99300
C2390       C  0.65382632  0.04304903  0.46228349     1.05200
O2391       O  0.66917952  0.10933823  0.44694082    -0.77300
C2392       C  0.58442299  0.06748818  0.38787475     1.03500
Fe2393     Fe  0.93950311  0.36986157  0.36273213     1.65800
Fe2394     Fe  0.94663175  0.38784878  0.43380247     1.73200
Fe2395     Fe  0.91358315  0.32376120  0.41701587     1.54400
O2396       O  0.88490325  0.31429746  0.38574297    -0.81100
O2397       O  0.96344516  0.37134802  0.45703261    -0.79400
O2398       O  0.90147925  0.34533164  0.35237180    -0.83600
O2399       O  0.94895870  0.34209157  0.35329513    -0.78400
O2400       O  0.89002001  0.32952154  0.44595219    -0.80200
O2401       O  0.98118951  0.40969420  0.41332580    -0.83000
C2402       C  0.94549111  0.32153475  0.36518376     0.97800
C2403       C  0.88290329  0.32454802  0.36231682     1.05200
O2404       O  0.93324571  0.36037835  0.40442896    -1.11900
O2405       O  0.93206133  0.40750204  0.41315514    -0.74400
O2406       O  0.93028779  0.39866896  0.36625405    -0.77900
O2407       O  0.93334950  0.31306207  0.38900051    -0.78600
C2408       C  0.92738600  0.41068339  0.38718593     0.96700
O2409       O  0.97866699  0.39593475  0.36818105    -0.76500
O2410       O  0.91354902  0.37078922  0.45814250    -0.81700
C2411       C  0.96002782  0.34900719  0.46060422     0.99300
C2412       C  0.89299846  0.34917739  0.45956444     1.05200
O2413       O  0.94121606  0.32900607  0.44906896    -0.77300
C2414       C  0.99144591  0.41078824  0.38899540     1.03500
Fe2415     Fe  0.87732567  0.43481820  0.63276583     1.65800
Fe2416     Fe  0.89447003  0.44587878  0.56121098     1.73200
Fe2417     Fe  0.83054395  0.41261128  0.57936979     1.54400
O2418       O  0.82068385  0.38251477  0.60868950    -0.81100
O2419       O  0.87806078  0.46471898  0.54146859    -0.79400
O2420       O  0.85150404  0.39724667  0.64231632    -0.83600
O2421       O  0.85131678  0.44636584  0.64404602    -0.78400
O2422       O  0.83550830  0.38981518  0.54869420    -0.80200
O2423       O  0.91783228  0.47923578  0.58368312    -0.83000
C2424       C  0.83101936  0.44450039  0.63302999     0.97800
C2425       C  0.83083624  0.37942947  0.63149855     1.05200
O2426       O  0.86739676  0.43110813  0.59119318    -1.11900
O2427       O  0.91367980  0.42911022  0.57885248    -0.74400
O2428       O  0.90446895  0.42355261  0.62599506    -0.77900
O2429       O  0.82134737  0.43270584  0.60923197    -0.78600
C2430       C  0.91640302  0.42202427  0.60395297     0.96700
O2431       O  0.90509580  0.47308622  0.62968319    -0.76500
O2432       O  0.87612547  0.41431870  0.53402925    -0.81700
C2433       C  0.85531039  0.46038710  0.53776509     0.99300
C2434       C  0.85447956  0.39364738  0.53292036     1.05200
O2435       O  0.83559870  0.44073744  0.54849834    -0.77300
C2436       C  0.91999950  0.48706534  0.60961589     1.03500
Fe2437     Fe  0.72999803  0.45664682  0.30665675     1.65800
Fe2438     Fe  0.70566527  0.43427216  0.23969416     1.73200
Fe2439     Fe  0.74729551  0.99656985  0.24752169     1.54400
O2440       O  0.73331598  0.01104721  0.27966518    -0.81100
O2441       O  0.73341498  0.44585042  0.20860704    -0.79400
O2442       O  0.72137859  0.48439344  0.31726095    -0.83600
O2443       O  0.76837617  0.48210123  0.31016862    -0.78400
O2444       O  0.71999169  0.49517219  0.22011342    -0.80200
O2445       O  0.71911152  0.41142500  0.25671214    -0.83000
C2446       C  0.78422488  0.99908084  0.29585594     0.97800
C2447       C  0.72194632  0.00276153  0.30414498     1.05200
O2448       O  0.72824422  0.46327525  0.26480587    -1.11900
O2449       O  0.67477372  0.41857015  0.26739664    -0.74400
O2450       O  0.69155908  0.42960323  0.31141453    -0.77900
O2451       O  0.78015015  0.00628122  0.27153061    -0.78600
C2452       C  0.67258405  0.41679682  0.29474622     0.96700
O2453       O  0.73883871  0.42820207  0.29882228    -0.76500
O2454       O  0.68976366  0.45366246  0.21945991    -0.81700
C2455       C  0.75440564  0.46552111  0.20103099     0.99300
C2456       C  0.69844348  0.47679725  0.21146475     1.05200
O2457       O  0.76424723  0.48687529  0.21460907    -0.77300
C2458       C  0.73215355  0.41165892  0.27864039     1.03500
Fe2459     Fe  0.63218662  0.39729808  0.08623127     1.65800
Fe2460     Fe  0.60334606  0.39206427  0.02154852     1.73200
Fe2461     Fe  0.58474738  0.41233877  0.08229438     1.54400
O2462       O  0.57171016  0.38284350  0.11357472    -0.81100
O2463       O  0.60998152  0.42831691  0.01289235    -0.79400
O2464       O  0.60491624  0.37606669  0.11743420    -0.83600
O2465       O  0.64512518  0.43100824  0.10935918    -0.78400
O2466       O  0.55176728  0.38934025  0.05829940    -0.80200
O2467       O  0.64230679  0.40558275  0.01477416    -0.83000
C2468       C  0.63501873  0.44358887  0.11876799     0.97800
C2469       C  0.58242885  0.37111383  0.12473343     1.05200
O2470       O  0.60646658  0.40037329  0.06344202    -1.11900
O2471       O  0.59733803  0.35540502  0.02804208    -0.74400
O2472       O  0.62366789  0.36327538  0.06570244    -0.77900
O2473       O  0.61267421  0.43837113  0.11103718    -0.78600
C2474       C  0.60997736  0.34902857  0.04481603     0.96700
O2475       O  0.66173906  0.41794063  0.05737342    -0.76500
O2476       O  0.56392200  0.37664300  0.01930835    -0.81700
C2477       C  0.60691561  0.44527332  0.02574556     0.99300
C2478       C  0.54684605  0.37763864  0.03426671     1.05200
O2479       O  0.59714050  0.44191691  0.05130251    -0.77300
C2480       C  0.66262439  0.41572926  0.03006853     1.03500
Fe2481     Fe  0.54357087  0.26705017  0.32265063     1.65800
Fe2482     Fe  0.57792543  0.28389487  0.26242366     1.73200
Fe2483     Fe  0.01359150  0.25215209  0.25653027     1.54400
O2484       O  0.00171680  0.21818198  0.27898145    -0.81100
O2485       O  0.56596408  0.29495327  0.22574022    -0.79400
O2486       O  0.51098374  0.23067598  0.32395614    -0.83600
O2487       O  0.52189142  0.28404051  0.32151333    -0.78400
O2488       O  0.03160083  0.24009413  0.22476041    -0.80200
O2489       O  0.58661901  0.31773222  0.28093880    -0.83000
C2490       C  0.99964437  0.27630612  0.30931114     0.97800
C2491       C  0.00039775  0.21426902  0.30626474     1.05200
O2492       O  0.54479086  0.26761682  0.28053869    -1.11900
O2493       O  0.59589069  0.27588679  0.29585742    -0.74400
O2494       O  0.56489393  0.24893547  0.32534349    -0.77900
O2495       O  0.99327706  0.26246468  0.28619129    -0.78600
C2496       C  0.58668860  0.25723231  0.31362007     0.96700
O2497       O  0.57599625  0.30428109  0.32671124    -0.76500
O2498       O  0.56877468  0.24969291  0.24435091    -0.81700
C2499       C  0.54665454  0.29696347  0.21864915     0.99300
C2500       C  0.55217230  0.23818325  0.22470891     1.05200
O2501       O  0.52555631  0.28525133  0.23256548    -0.77300
C2502       C  0.58708252  0.32223567  0.30789457     1.03500
Fe2503     Fe  0.60770070  0.20498612  0.01901376     1.65800
Fe2504     Fe  0.63448688  0.22848641  0.08472632     1.73200
Fe2505     Fe  0.58713460  0.16516016  0.07909722     1.54400
O2506       O  0.55424952  0.15697003  0.05527239    -0.81100
O2507       O  0.64863146  0.20795515  0.10497305    -0.79400
O2508       O  0.56900360  0.18068399  0.01558412    -0.83600
O2509       O  0.61446517  0.17555668  0.01007216    -0.78400
O2510       O  0.57436786  0.17980472  0.11253906    -0.80200
O2511       O  0.66506307  0.24165011  0.05633999    -0.83000
C2512       C  0.61016147  0.15515217  0.02322711     0.97800
C2513       C  0.55059667  0.16373913  0.03038425     1.05200
O2514       O  0.60960202  0.19947559  0.06099662    -1.11900
O2515       O  0.62361931  0.25274495  0.06695570    -0.74400
O2516       O  0.60153241  0.23571162  0.02590269    -0.77900
O2517       O  0.59874094  0.14795484  0.04778896    -0.78600
C2518       C  0.61127827  0.25352374  0.04496668     0.96700
O2519       O  0.64625109  0.23037384  0.01336462    -0.76500
O2520       O  0.60753412  0.21984543  0.11661287    -0.81700
C2521       C  0.63852870  0.18502835  0.11395425     0.99300
C2522       C  0.58599144  0.20155002  0.12541394     1.05200
O2523       O  0.61603268  0.16747686  0.10644466    -0.77300
C2524       C  0.66599751  0.24316448  0.02891712     1.03500
Fe2525     Fe  0.79116106  0.39520603  0.00350468     1.65800
Fe2526     Fe  0.75591501  0.37706770  0.06580720     1.73200
Fe2527     Fe  0.82155810  0.41107142  0.07091457     1.54400
O2528       O  0.83984362  0.39647039  0.04501926    -0.81100
O2529       O  0.76524118  0.40577175  0.09445406    -0.79400
O2530       O  0.81833608  0.38438911  0.00300804    -0.83600
O2531       O  0.81912533  0.43291665  0.00271447    -0.78400
O2532       O  0.80889510  0.37887347  0.09843753    -0.80200
O2533       O  0.74157916  0.39440673  0.03966349    -0.83000
C2534       C  0.83521793  0.44953799  0.02007226     0.97800
C2535       C  0.83644376  0.38706647  0.01945486     1.05200
O2536       O  0.78972263  0.39453438  0.04673815    -1.11900
O2537       O  0.74239452  0.34540468  0.03998370    -0.74400
O2538       O  0.76385204  0.35687820  0.99815119    -0.77900
O2539       O  0.83805478  0.44464557  0.04627807    -0.78600
C2540       C  0.74707777  0.34022237  0.01495431     0.96700
O2541       O  0.76429547  0.40713034  0.99866888    -0.76500
O2542       O  0.76631295  0.35865060  0.09498212    -0.81700
C2543       C  0.78495255  0.42417644  0.10594732     0.99300
C2544       C  0.78657372  0.36049466  0.10551808     1.05200
O2545       O  0.80752961  0.42867326  0.09958233    -0.77300
C2546       C  0.74685817  0.40579903  0.01533602     1.03500
Fe2547     Fe  0.70663677  0.26802446  0.23765045     1.65800
Fe2548     Fe  0.73000218  0.26878968  0.30498376     1.73200
Fe2549     Fe  0.75026633  0.24823139  0.24614527     1.54400
O2550       O  0.72240277  0.22432805  0.21589716    -0.81100
O2551       O  0.76857569  0.28282165  0.30996166    -0.79400
O2552       O  0.69014110  0.23211969  0.21846307    -0.83600
O2553       O  0.73454905  0.28425571  0.20624084    -0.78400
O2554       O  0.73425484  0.21792435  0.27563294    -0.80200
O2555       O  0.73806650  0.30617675  0.29796387    -0.83000
C2556       C  0.75672660  0.28789272  0.20023361     0.97800
C2557       C  0.69982101  0.21913385  0.20894696     1.05200
O2558       O  0.72915050  0.26180207  0.26300361    -1.11900
O2559       O  0.69117216  0.25556046  0.30903214    -0.74400
O2560       O  0.67545036  0.25304005  0.26506233    -0.77900
O2561       O  0.76739552  0.27792512  0.21511595    -0.78600
C2562       C  0.67255878  0.25053074  0.29229319     0.96700
O2563       O  0.72057065  0.30444872  0.25457684    -0.76500
O2564       O  0.72206983  0.23214673  0.31429607    -0.81700
C2565       C  0.78566408  0.27988034  0.29776891     0.99300
C2566       C  0.72419126  0.21490896  0.30081168     1.05200
O2567       O  0.78184050  0.26848429  0.27352548    -0.77300
C2568       C  0.73247103  0.31665957  0.27737532     1.03500
Fe2569     Fe  0.88910666  0.11626236  0.89879061     1.65800
Fe2570     Fe  0.89317845  0.10298061  0.96994182     1.73200
Fe2571     Fe  0.92151400  0.08508425  0.91679162     1.54400
O2572       O  0.89428989  0.06218105  0.88486718    -0.81100
O2573       O  0.93105217  0.11752895  0.98265283    -0.79400
O2574       O  0.87297778  0.08270718  0.87478459    -0.83600
O2575       O  0.92207974  0.13263765  0.87499031    -0.78400
O2576       O  0.90165244  0.05378651  0.94482013    -0.80200
O2577       O  0.90025189  0.14001846  0.96698944    -0.83000
C2578       C  0.94147362  0.13014497  0.87171450     0.97800
C2579       C  0.87625253  0.06358798  0.87193727     1.05200
O2580       O  0.90152526  0.10156357  0.92855949    -1.11900
O2581       O  0.85402916  0.08789472  0.96179400    -0.74400
O2582       O  0.85387201  0.10241195  0.91764922    -0.77900
O2583       O  0.94464226  0.11393429  0.88626061    -0.78600
C2584       C  0.84217049  0.09054214  0.94043983     0.96700
O2585       O  0.90337815  0.15085159  0.92017208    -0.76500
O2586       O  0.88460478  0.06642462  0.97915438    -0.81700
C2587       C  0.95017875  0.11650119  0.97258947     0.99300
C2588       C  0.88833632  0.04956301  0.96777065     1.05200
O2589       O  0.94954341  0.10552347  0.94857993    -0.77300
C2590       C  0.90410828  0.15604962  0.94697488     1.03500
Fe2591     Fe  0.96059007  0.22587193  0.69338638     1.65800
Fe2592     Fe  0.94601038  0.22116787  0.76402715     1.73200
Fe2593     Fe  0.50928373  0.25099435  0.74608953     1.54400
O2594       O  0.51889816  0.23533410  0.71104441    -0.81100
O2595       O  0.96106700  0.25760087  0.77929481    -0.79400
O2596       O  0.98178385  0.20807135  0.68751586    -0.83600
O2597       O  0.99122063  0.26108235  0.68017297    -0.78400
O2598       O  0.50401246  0.21949299  0.77035624    -0.80200
O2599       O  0.92096544  0.22769301  0.73986416    -0.83000
C2600       C  0.50896196  0.28249892  0.69532372     0.97800
C2601       C  0.50576064  0.21683580  0.69348695     1.05200
O2602       O  0.97154707  0.23286265  0.73393555    -1.11900
O2603       O  0.92987852  0.18458935  0.74945629    -0.74400
O2604       O  0.92772340  0.19021452  0.70204439    -0.77900
O2605       O  0.51592496  0.28231205  0.72140208    -0.78600
C2606       C  0.91914788  0.17670442  0.72504440     0.96700
O2607       O  0.93826108  0.24292897  0.69638925    -0.76500
O2608       O  0.96704057  0.21233521  0.79285950    -0.81700
C2609       C  0.98324868  0.27126402  0.79003025     0.99300
C2610       C  0.98503164  0.20747289  0.78883815     1.05200
O2611       O  0.50447577  0.26921983  0.78320374    -0.77300
C2612       C  0.92155100  0.23842402  0.71587123     1.03500
Fe2613     Fe  0.89037463  0.28949933  0.97277054     1.65800
Fe2614     Fe  0.88250562  0.26839177  0.90274182     1.73200
Fe2615     Fe  0.92089414  0.33234260  0.91621902     1.54400
O2616       O  0.90522950  0.34785163  0.94533808    -0.81100
O2617       O  0.91541074  0.28031518  0.88005885    -0.79400
O2618       O  0.88046185  0.31694397  0.97685839    -0.83600
O2619       O  0.92833176  0.31519290  0.98477028    -0.78400
O2620       O  0.89417734  0.32958877  0.88501184    -0.80200
O2621       O  0.89286522  0.24663395  0.92761179    -0.83000
C2622       C  0.94893343  0.33161030  0.97195388     0.97800
C2623       C  0.88949431  0.33943352  0.96676025     1.05200
O2624       O  0.89788896  0.29681186  0.93060622    -1.11900
O2625       O  0.84716206  0.25159088  0.92115800    -0.74400
O2626       O  0.85104182  0.26225445  0.96758671    -0.77900
O2627       O  0.94923870  0.33835997  0.94570646    -0.78600
C2628       C  0.83738620  0.24951896  0.94594725     0.96700
O2629       O  0.89975114  0.26126542  0.97326964    -0.76500
O2630       O  0.87069038  0.28749957  0.87535204    -0.81700
C2631       C  0.93638603  0.30071752  0.87521584     0.99300
C2632       C  0.87616244  0.31057477  0.87135679     1.05200
O2633       O  0.94094495  0.32215811  0.88591878    -0.77300
C2634       C  0.89932358  0.24627446  0.95382978     1.03500
Fe2635     Fe  0.70523944  0.09672470  0.96373388     1.65800
Fe2636     Fe  0.72312515  0.10786593  0.89257110     1.73200
Fe2637     Fe  0.65899091  0.07620209  0.90953237     1.54400
O2638       O  0.64756343  0.04614189  0.93895119    -0.81100
O2639       O  0.70752345  0.12664538  0.87149479    -0.79400
O2640       O  0.67883443  0.05861199  0.97196042    -0.83600
O2641       O  0.67862637  0.10693446  0.97544475    -0.78400
O2642       O  0.66380712  0.05316043  0.87873526    -0.80200
O2643       O  0.74523863  0.14125262  0.91495932    -0.83000
C2644       C  0.65880770  0.10591177  0.96433343     0.97800
C2645       C  0.65693959  0.04213996  0.96182541     1.05200
O2646       O  0.69566166  0.09352120  0.92207334    -1.11900
O2647       O  0.74230328  0.09166505  0.91078428    -0.74400
O2648       O  0.73284265  0.08607502  0.95764960    -0.77900
O2649       O  0.64992332  0.09599913  0.93956459    -0.78600
C2650       C  0.74503754  0.08474398  0.93584012     0.96700
O2651       O  0.73272318  0.13602549  0.96086135    -0.76500
O2652       O  0.70525373  0.07596999  0.86635122    -0.81700
C2653       C  0.68547626  0.12412155  0.86850124     0.99300
C2654       C  0.68319890  0.05596603  0.86444191     1.05200
O2655       O  0.66520449  0.10527117  0.87940353    -0.77300
C2656       C  0.74679313  0.15022980  0.94017361     1.03500
Fe2657     Fe  0.77194101  0.03945074  0.69991226     1.65800
Fe2658     Fe  0.77918032  0.05403793  0.77120855     1.73200
Fe2659     Fe  0.75214847  0.49341805  0.75119312     1.54400
O2660       O  0.71971065  0.48104775  0.72485552    -0.81100
O2661       O  0.78886025  0.03465477  0.80063497    -0.79400
O2662       O  0.73620179  0.00994639  0.68685261    -0.83600
O2663       O  0.78910135  0.01791517  0.69073038    -0.78400
O2664       O  0.73072383  0.49827665  0.78434302    -0.80200
O2665       O  0.81570374  0.07044052  0.75494627    -0.83000
C2666       C  0.78386245  0.49529423  0.69600299     0.97800
C2667       C  0.71608109  0.48814814  0.70011191     1.05200
O2668       O  0.76652518  0.02807960  0.74068257    -1.11900
O2669       O  0.77242156  0.07931472  0.74811568    -0.74400
O2670       O  0.75544593  0.06227874  0.70535085    -0.77900
O2671       O  0.77066553  0.48448123  0.71882090    -0.78600
C2672       C  0.76100971  0.07914224  0.72492413     0.96700
O2673       O  0.80816662  0.07134944  0.70765268    -0.76500
O2674       O  0.74301810  0.03837667  0.78809399    -0.81700
C2675       C  0.79194950  0.01554350  0.79854219     0.99300
C2676       C  0.72530364  0.01532780  0.79270917     1.05200
O2677       O  0.78319155  0.50076480  0.77887535    -0.77300
C2678       C  0.82271630  0.08018337  0.72980711     1.03500
Fe2679     Fe  0.78326703  0.21942684  0.76824185     1.65800
Fe2680     Fe  0.77378526  0.22668454  0.69654499     1.73200
Fe2681     Fe  0.75183139  0.25151862  0.74964864     1.54400
O2682       O  0.72927467  0.22459544  0.78183982    -0.81100
O2683       O  0.78642754  0.26432258  0.68529428    -0.79400
O2684       O  0.75058137  0.20461429  0.79356340    -0.83600
O2685       O  0.80131036  0.25404280  0.78973450    -0.78400
O2686       O  0.72119066  0.23069654  0.72133483    -0.80200
O2687       O  0.81211294  0.23660153  0.70055705    -0.83000
C2688       C  0.79919177  0.27387012  0.79151647     0.97800
C2689       C  0.73131196  0.20758656  0.79609019     1.05200
O2690       O  0.76957267  0.23255623  0.73806186    -1.11900
O2691       O  0.76141239  0.18778754  0.70255970    -0.74400
O2692       O  0.76783288  0.18385719  0.74941878    -0.77900
O2693       O  0.78117702  0.27550545  0.77896937    -0.78600
C2694       C  0.76086187  0.17432778  0.72420242     0.96700
O2695       O  0.81744720  0.23128191  0.74715576    -0.76500
O2696       O  0.73654662  0.21660221  0.68648851    -0.81700
C2697       C  0.78337274  0.28228433  0.69501923     0.99300
C2698       C  0.71855408  0.21903901  0.69741863     1.05200
O2699       O  0.77096707  0.28012527  0.71829621    -0.77300
C2700       C  0.82602296  0.23687739  0.72146001     1.03500
C2701       C  0.75355880  0.14669504  0.72046043    -0.04700
C2702       C  0.74381172  0.12983110  0.74463637    -0.01900
C2703       C  0.74522875  0.10724807  0.74549828     0.03100
C2704       C  0.75480517  0.10005992  0.72140599    -0.04700
C2705       C  0.76155382  0.11518354  0.69579622    -0.01800
C2706       C  0.76064409  0.13824883  0.69519273     0.03100
C2707       C  0.73315657  0.13602755  0.76952940     0.37800
C2708       C  0.77213770  0.10865511  0.67113637     0.37800
C2709       C  0.76821814  0.15370010  0.66890119     0.36200
C2710       C  0.73878767  0.09277207  0.77251598     0.36200
N2711       N  0.77393901  0.16577033  0.64773386    -0.38600
N2712       N  0.73439363  0.08229753  0.79469266    -0.38600
N2713       N  0.78086441  0.10368281  0.65153193    -0.38100
N2714       N  0.72486811  0.14060671  0.78982112    -0.38100
C2715       C  0.71015330  0.18897174  0.81560083    -0.04700
C2716       C  0.69109253  0.16486816  0.80437349    -0.01900
C2717       C  0.67848176  0.14315119  0.82302188     0.03100
C2718       C  0.68502496  0.14554502  0.85269329    -0.04700
C2719       C  0.69938607  0.17050133  0.86458861    -0.01800
C2720       C  0.71252519  0.19213612  0.84606239     0.03100
C2721       C  0.68626105  0.16192946  0.77333955     0.37800
C2722       C  0.70227216  0.17349335  0.89591435     0.37800
C2723       C  0.73015132  0.21707573  0.85839616     0.36200
C2724       C  0.65945169  0.11829278  0.81171780     0.36200
N2725       N  0.74416326  0.23669165  0.86898114    -0.38600
N2726       N  0.64363551  0.09860539  0.80281256    -0.38600
N2727       N  0.70447351  0.17583929  0.92090526    -0.38100
N2728       N  0.68245158  0.15959637  0.74854818    -0.38100
C2729       C  0.68159626  0.03497042  0.84576219    -0.04700
C2730       C  0.67937962  0.03602220  0.81533218    -0.01900
C2731       C  0.68965890  0.02470619  0.79684506     0.03100
C2732       C  0.70243615  0.01254860  0.80872710    -0.04700
C2733       C  0.69944152  0.00665852  0.83861905    -0.01800
C2734       C  0.68963934  0.01837587  0.85730612     0.03100
C2735       C  0.66850253  0.05047648  0.80294008     0.37800
C2736       C  0.72397310  0.50189483  0.85664193     0.37800
C2737       C  0.69909593  0.52108438  0.89330967     0.36200
C2738       C  0.68921020  0.02749252  0.76553485     0.36200
N2739       N  0.70108055  0.52069878  0.91831957    -0.38600
N2740       N  0.68886998  0.02965971  0.74054928    -0.38600
N2741       N  0.73541035  0.49338098  0.86735254    -0.38100
N2742       N  0.65973254  0.06174425  0.79242193    -0.38100
C2743       C  0.80933899  0.22942719  0.94868974    -0.04700
C2744       C  0.79428061  0.22117016  0.92308777    -0.01900
C2745       C  0.77384502  0.19564647  0.92045590     0.03100
C2746       C  0.76605673  0.17846251  0.94460529    -0.04700
C2747       C  0.77804566  0.18856525  0.97193274    -0.01800
C2748       C  0.79942000  0.21408481  0.97394834     0.03100
C2749       C  0.80078511  0.23843850  0.89834061     0.37800
C2750       C  0.77014277  0.17233941  0.99759989     0.37800
C2751       C  0.81147715  0.22426042  0.00185873     0.36200
C2752       C  0.76292306  0.18700102  0.89165560     0.36200
N2753       N  0.82104161  0.23251783  0.02414533    -0.38600
N2754       N  0.75540297  0.18037305  0.86826703    -0.38600
N2755       N  0.76405624  0.15953222  0.01821731    -0.38100
N2756       N  0.80571682  0.25159585  0.87815706    -0.38100
C2757       C  0.86001518  0.31436913  0.84971680    -0.04700
C2758       C  0.83540370  0.30970922  0.85799632    -0.01900
C2759       C  0.81518034  0.30030983  0.83728708     0.03100
C2760       C  0.81976453  0.29573818  0.80851265    -0.04700
C2761       C  0.84555987  0.30642660  0.79922658    -0.01800
C2762       C  0.86567204  0.31515722  0.81988005     0.03100
C2763       C  0.83054014  0.31270485  0.88817089     0.37800
C2764       C  0.85104490  0.30695284  0.76851025     0.37800
C2765       C  0.89162263  0.32273429  0.81071144     0.36200
C2766       C  0.78965650  0.29462775  0.84557936     0.36200
N2767       N  0.91225530  0.32862853  0.80322212    -0.38600
N2768       N  0.76940732  0.29076414  0.85198242    -0.38600
N2769       N  0.85558020  0.30753947  0.74400163    -0.38100
N2770       N  0.82679006  0.31522221  0.91228036    -0.38100
C2771       C  0.89446438  0.15198155  0.72476778    -0.04700
C2772       C  0.87622308  0.14750026  0.74680979    -0.01900
C2773       C  0.85278439  0.12419346  0.74779120     0.03100
C2774       C  0.84751352  0.10462993  0.72737183    -0.04700
C2775       C  0.86510029  0.10941785  0.70450658    -0.01800
C2776       C  0.88855977  0.13319950  0.70312201     0.03100
C2777       C  0.88099319  0.16719014  0.76824160     0.37800
C2778       C  0.85924879  0.08989715  0.68264679     0.37800
C2779       C  0.90677720  0.13809662  0.67989323     0.36200
C2780       C  0.83347246  0.12110592  0.76902298     0.36200
N2781       N  0.92133121  0.14214308  0.66132202    -0.38600
N2782       N  0.81817285  0.11887264  0.78585199    -0.38600
N2783       N  0.85456895  0.07440088  0.66508979    -0.38100
N2784       N  0.88473928  0.18266589  0.78549264    -0.38100
C2785       C  0.85311298  0.24291965  0.71605814    -0.04700
C2786       C  0.85968175  0.23445434  0.69033096    -0.01900
C2787       C  0.88310934  0.23426201  0.68890017     0.03100
C2788       C  0.90130604  0.24523674  0.71157259    -0.04700
C2789       C  0.89668105  0.25783555  0.73441271    -0.01800
C2790       C  0.87209989  0.25468147  0.73813245     0.03100
C2791       C  0.84169431  0.22391602  0.66627593     0.37800
C2792       C  0.91702738  0.27326051  0.75499408     0.37800
C2793       C  0.86601574  0.26090272  0.76634177     0.36200
C2794       C  0.88737198  0.22074254  0.66550513     0.36200
N2795       N  0.86129258  0.26463773  0.78955342    -0.38600
N2796       N  0.89057902  0.20966794  0.64701200    -0.38600
N2797       N  0.93309691  0.28606182  0.77129769    -0.38100
N2798       N  0.82757738  0.21578033  0.64683791    -0.38100
C2799       C  0.98414126  0.28623999  0.81612128    -0.04700
C2800       C  0.98325908  0.30915627  0.81332223    -0.01900
C2801       C  0.97062122  0.31592676  0.83477758     0.03100
C2802       C  0.95565474  0.29794422  0.85678798    -0.04700
C2803       C  0.95701927  0.27504850  0.85898647    -0.01800
C2804       C  0.97406575  0.27151684  0.84145891     0.03100
C2805       C  0.49660443  0.32511294  0.78853002     0.37800
C2806       C  0.93781192  0.25258536  0.87471517     0.37800
C2807       C  0.97772287  0.24987086  0.84694255     0.36200
C2808       C  0.97060402  0.33984113  0.83203521     0.36200
N2809       N  0.98041248  0.23259808  0.85205717    -0.38600
N2810       N  0.47211412  0.35892564  0.82959971    -0.38600
N2811       N  0.92175528  0.23373051  0.88510539    -0.38100
N2812       N  0.50503004  0.33727605  0.76762714    -0.38100
C2813       C  0.81369409  0.08034476  0.94129730    -0.04700
C2814       C  0.79963685  0.07427768  0.91482045    -0.01900
C2815       C  0.77508913  0.07167966  0.91399015     0.03100
C2816       C  0.76483277  0.07675586  0.93918391    -0.04700
C2817       C  0.77652741  0.07789078  0.96637951    -0.01800
C2818       C  0.80074424  0.07931157  0.96743333     0.03100
C2819       C  0.81067833  0.07216188  0.88759614     0.37800
C2820       C  0.76436481  0.07850503  0.99333684     0.37800
C2821       C  0.81258234  0.08097613  0.99543634     0.36200
C2822       C  0.76117907  0.06494628  0.88649478     0.36200
N2823       N  0.82178049  0.08215368  0.01791937    -0.38600
N2824       N  0.75066707  0.05997588  0.86430318    -0.38600
N2825       N  0.75468928  0.07886606  0.01493145    -0.38100
N2826       N  0.81900269  0.07104696  0.86533764    -0.38100
C2827       C  0.85626804  0.04153936  0.85441242    -0.04700
C2828       C  0.85968632  0.03930299  0.82445209    -0.01900
C2829       C  0.83793530  0.02727667  0.80573436     0.03100
C2830       C  0.81268559  0.01633465  0.81718982    -0.04700
C2831       C  0.80954430  0.01411098  0.84763495    -0.01800
C2832       C  0.83123887  0.02672556  0.86612533     0.03100
C2833       C  0.88543269  0.04957369  0.81296189     0.37800
C2834       C  0.78398227  0.00010881  0.86008968     0.37800
C2835       C  0.82763825  0.02598421  0.89728014     0.36200
C2836       C  0.85227748  0.54556910  0.77044472     0.36200
N2837       N  0.82450278  0.02525753  0.92211206    -0.38600
N2838       N  0.85657286  0.55236912  0.74648213    -0.38600
N2839       N  0.76390979  0.98874377  0.87090810    -0.38100
N2840       N  0.90596425  0.05732788  0.80372171    -0.38100
C2841       C  0.90690383  0.18095841  0.95534163    -0.04700
C2842       C  0.92739359  0.20449317  0.94468351    -0.01900
C2843       C  0.92744271  0.22750571  0.94996005     0.03100
C2844       C  0.90540752  0.22641308  0.96179705    -0.04700
C2845       C  0.88614607  0.20359049  0.97470766    -0.01800
C2846       C  0.88715107  0.18093731  0.97205706     0.03100
C2847       C  0.94709085  0.20493802  0.92623595     0.37800
C2848       C  0.86431732  0.20290289  0.98891612     0.37800
C2849       C  0.86610998  0.15718515  0.98373782     0.36200
C2850       C  0.94957777  0.25227094  0.94238129     0.36200
N2851       N  0.84907670  0.13851017  0.99319434    -0.38600
N2852       N  0.96721817  0.27212037  0.93659954    -0.38600
N2853       N  0.84673429  0.20181664  0.00045577    -0.38100
N2854       N  0.96255305  0.20546276  0.91085053    -0.38100
C2855       C  0.95947094  0.14618732  0.84809165    -0.04700
C2856       C  0.94990767  0.14216705  0.81927470    -0.01900
C2857       C  0.96326476  0.16078114  0.79767315     0.03100
C2858       C  0.98324167  0.18544199  0.80552219    -0.04700
C2859       C  0.99463443  0.18884885  0.83320314    -0.01800
C2860       C  0.98314294  0.16886663  0.85431289     0.03100
C2861       C  0.92426084  0.12113188  0.81255662     0.37800
C2862       C  0.51982266  0.21118600  0.83956475     0.37800
C2863       C  0.99442797  0.17257052  0.88294082     0.36200
C2864       C  0.95572812  0.15494948  0.76743875     0.36200
N2865       N  0.50630428  0.17128275  0.90333614    -0.38600
N2866       N  0.95007529  0.14974112  0.74329026    -0.38600
N2867       N  0.53885254  0.22993842  0.84498532    -0.38100
N2868       N  0.90335115  0.10548250  0.80693701    -0.38100
C2869       C  0.85023079  0.47597349  0.00869248    -0.04700
C2870       C  0.83677321  0.48739506  0.99690193    -0.01900
C2871       C  0.84908751  0.01227596  0.98988081     0.03100
C2872       C  0.87529086  0.02362769  0.98164909    -0.04700
C2873       C  0.88835108  0.00999836  0.98699000    -0.01800
C2874       C  0.87736248  0.48868735  0.00616510     0.03100
C2875       C  0.80892493  0.47323917  0.99449503     0.37800
C2876       C  0.91491147  0.02074681  0.97789618     0.37800
C2877       C  0.89125558  0.47652796  0.01696918     0.36200
C2878       C  0.83506269  0.02585470  0.98657068     0.36200
N2879       N  0.90244243  0.46691566  0.02556713    -0.38600
N2880       N  0.82311401  0.03593699  0.98471615    -0.38600
N2881       N  0.93607067  0.02921096  0.97045935    -0.38100
N2882       N  0.78694165  0.46268305  0.99056845    -0.38100
C2883       C  0.85415621  0.37873397  0.00741830    -0.04700
C2884       C  0.86155379  0.38332727  0.97767781    -0.01900
C2885       C  0.87453903  0.37187959  0.96460390     0.03100
C2886       C  0.88056919  0.35585670  0.98113321    -0.04700
C2887       C  0.87560004  0.35354235  0.01157766    -0.01800
C2888       C  0.86224023  0.36464765  0.02454497     0.03100
C2889       C  0.85554868  0.39969044  0.96014933     0.37800
C2890       C  0.88402561  0.33948493  0.02983995     0.37800
C2891       C  0.85557024  0.36020858  0.05517844     0.36200
C2892       C  0.88043898  0.37565350  0.93378355     0.36200
N2893       N  0.85024480  0.35661575  0.07961093    -0.38600
N2894       N  0.88517041  0.37872847  0.90918998    -0.38600
N2895       N  0.89061654  0.32821915  0.04442687    -0.38100
N2896       N  0.85063649  0.41259783  0.94613593    -0.38100
C2897       C  0.78283769  0.34005535  0.12719426    -0.04700
C2898       C  0.79934071  0.34566989  0.15160599    -0.01900
C2899       C  0.79234933  0.32757022  0.17472595     0.03100
C2900       C  0.76896076  0.30368375  0.17360477    -0.04700
C2901       C  0.75366335  0.29732941  0.14826028    -0.01800
C2902       C  0.76025630  0.31525472  0.12556209     0.03100
C2903       C  0.82198996  0.37103786  0.15468835     0.37800
C2904       C  0.72924071  0.27316141  0.14658784     0.37800
C2905       C  0.74169464  0.30851406  0.10215209     0.36200
C2906       C  0.80761328  0.33495720  0.20110424     0.36200
N2907       N  0.72586582  0.30300552  0.08476047    -0.38600
N2908       N  0.81979488  0.34139818  0.22216306    -0.38600
N2909       N  0.70927791  0.25460160  0.14481965    -0.38100
N2910       N  0.83995707  0.39135903  0.15731444    -0.38100
C2911       C  0.52412045  0.15151244  0.01716854    -0.04700
C2912       C  0.51775206  0.16577943  0.99754766    -0.01900
C2913       C  0.99201630  0.15567246  0.98573685     0.03100
C2914       C  0.97463236  0.12927656  0.98952411    -0.04700
C2915       C  0.98066206  0.11535395  0.00953280    -0.01800
C2916       C  0.50550378  0.12524746  0.02233088     0.03100
C2917       C  0.53618180  0.19242366  0.99036773     0.37800
C2918       C  0.96151296  0.08887457  0.01611681     0.37800
C2919       C  0.51138029  0.10965235  0.04131339     0.36200
C2920       C  0.98382972  0.17121002  0.97021695     0.36200
N2921       N  0.51600227  0.09707307  0.05631285    -0.38600
N2922       N  0.97718712  0.18391021  0.95870867    -0.38600
N2923       N  0.94613423  0.06788216  0.02184501    -0.38100
N2924       N  0.55087386  0.21343678  0.98378741    -0.38100
C2925       C  0.64589469  0.11736223  0.98101943    -0.04700
C2926       C  0.61865293  0.10427111  0.98383252    -0.01900
C2927       C  0.60662341  0.11612458  0.99831033     0.03100
C2928       C  0.62175667  0.14088454  0.01027479    -0.04700
C2929       C  0.64885973  0.15326890  0.00875329    -0.01800
C2930       C  0.66092308  0.14163218  0.99443214     0.03100
C2931       C  0.60306687  0.07824770  0.97291459     0.37800
C2932       C  0.66447556  0.17833036  0.02189675     0.37800
C2933       C  0.68890838  0.15519566  0.99315504     0.36200
C2934       C  0.57875480  0.10325282  0.00017090     0.36200
N2935       N  0.71120433  0.16618660  0.99257987    -0.38600
N2936       N  0.55651571  0.09305496  0.00161856    -0.38600
N2937       N  0.67686173  0.19838398  0.03228926    -0.38100
N2938       N  0.59065789  0.05738348  0.96442999    -0.38100
C2939       C  0.73189863  0.31318865  0.00598300    -0.04700
C2940       C  0.70896801  0.30491932  0.99041477    -0.01900
C2941       C  0.68843522  0.27948867  0.99362886     0.03100
C2942       C  0.69016498  0.26320967  0.01478756    -0.04700
C2943       C  0.71462529  0.27044335  0.02672944    -0.01800
C2944       C  0.73582297  0.29511889  0.02098097     0.03100
C2945       C  0.70507729  0.32335999  0.97439923     0.37800
C2946       C  0.71780323  0.25395881  0.04715396     0.37800
C2947       C  0.76097268  0.30310299  0.03345173     0.36200
C2948       C  0.66453712  0.27177748  0.97817805     0.36200
N2949       N  0.78101603  0.30951736  0.04339459    -0.38600
N2950       N  0.64556373  0.26579424  0.96579800    -0.38600
N2951       N  0.72119443  0.24166270  0.06393935    -0.38100
N2952       N  0.70125164  0.33768560  0.96178781    -0.38100
C2953       C  0.65263654  0.18036260  0.13743969    -0.04700
C2954       C  0.64163515  0.17438229  0.16544382    -0.01900
C2955       C  0.65777648  0.18277212  0.19008860     0.03100
C2956       C  0.68467536  0.19883984  0.18679653    -0.04700
C2957       C  0.69554173  0.19947294  0.15936062    -0.01800
C2958       C  0.67933074  0.18975185  0.13469946     0.03100
C2959       C  0.61390034  0.16197249  0.16900775     0.37800
C2960       C  0.72327409  0.21182160  0.15600583     0.37800
C2961       C  0.68994612  0.18924924  0.10669161     0.36200
C2962       C  0.64679384  0.17353799  0.21850247     0.36200
N2963       N  0.69874505  0.18806928  0.08480194    -0.38600
N2964       N  0.63705749  0.16446730  0.24046961    -0.38600
N2965       N  0.74540957  0.22174551  0.15332731    -0.38100
N2966       N  0.59178565  0.15222590  0.17174017    -0.38100
C2967       C  0.60185299  0.24455900  0.31842016    -0.04700
C2968       C  0.62271282  0.25537287  0.33783189    -0.01900
C2969       C  0.64511721  0.25431726  0.33152053     0.03100
C2970       C  0.64685429  0.24335737  0.30485899    -0.04700
C2971       C  0.62399792  0.22858211  0.28847493    -0.01800
C2972       C  0.60127859  0.22829382  0.29628492     0.03100
C2973       C  0.62123179  0.26806077  0.36382839     0.37800
C2974       C  0.62384254  0.21515307  0.26233035     0.37800
C2975       C  0.57757083  0.21236264  0.28048844     0.36200
C2976       C  0.66670980  0.26622083  0.35148881     0.36200
N2977       N  0.55871756  0.19913057  0.26798856    -0.38600
N2978       N  0.68381267  0.27551929  0.36762679    -0.38600
N2979       N  0.62297441  0.20470028  0.24094497    -0.38100
N2980       N  0.62003733  0.27773351  0.38499884    -0.38100
C2981       C  0.57553392  0.20674305  0.15264543    -0.04700
C2982       C  0.59326478  0.22212902  0.17445294    -0.01900
C2983       C  0.58577402  0.23265361  0.19705766     0.03100
C2984       C  0.55936271  0.22553725  0.20082840    -0.04700
C2985       C  0.54108514  0.20780976  0.18061949    -0.01800
C2986       C  0.54926209  0.19922457  0.15617983     0.03100
C2987       C  0.61988499  0.22787337  0.17347673     0.37800
C2988       C  0.01628482  0.20368286  0.18149325     0.37800
C2989       C  0.53080460  0.18383482  0.13390411     0.36200
C2990       C  0.60634663  0.25244805  0.21474507     0.36200
N2991       N  0.01857326  0.17477758  0.11488540    -0.38600
N2992       N  0.62288778  0.26833910  0.22846476    -0.38600
N2993       N  0.99459664  0.19697408  0.18339667    -0.38100
N2994       N  0.64111559  0.23271058  0.17271670    -0.38100
C2995       C  0.97378014  0.34398109  0.98841181    -0.04700
C2996       C  0.98057868  0.32930032  0.00659415    -0.01900
C2997       C  0.50247571  0.33951024  0.02549927     0.03100
C2998       C  0.52040757  0.36594552  0.02195060    -0.04700
C2999       C  0.51361533  0.38117229  0.00502066    -0.01800
C3000       C  0.99103591  0.37084512  0.98582919     0.03100
C3001       C  0.96393923  0.30157720  0.00857931     0.37800
C3002       C  0.53129623  0.40871520  0.00269400     0.37800
C3003       C  0.98383416  0.38668571  0.96909809     0.36200
C3004       C  0.50761994  0.32473423  0.04652430     0.36200
N3005       N  0.97799003  0.39926483  0.95581178    -0.38600
N3006       N  0.51135184  0.31313127  0.06396567    -0.38600
N3007       N  0.54528169  0.43069267  0.00082657    -0.38100
N3008       N  0.95090141  0.27943468  0.01012612    -0.38100
C3009       C  0.61627669  0.47029778  0.00988704    -0.04700
C3010       C  0.61709252  0.47092147  0.97892100    -0.01900
C3011       C  0.63001174  0.49457906  0.96382492     0.03100
C3012       C  0.64157898  0.01741983  0.97811285    -0.04700
C3013       C  0.64169844  0.01742391  0.00897539    -0.01800
C3014       C  0.62679139  0.49394347  0.02513763     0.03100
C3015       C  0.60490321  0.44725009  0.96213972     0.37800
C3016       C  0.65335255  0.04155567  0.02484667     0.37800
C3017       C  0.62640419  0.49434782  0.05670266     0.36200
C3018       C  0.63201899  0.49458678  0.93234778     0.36200
N3019       N  0.62619187  0.49476539  0.08186041    -0.38600
N3020       N  0.63350666  0.49449533  0.90726790    -0.38600
N3021       N  0.66242128  0.06076771  0.03752498    -0.38100
N3022       N  0.59544215  0.42844364  0.94866658    -0.38100
C3023       C  0.61034995  0.27754450  0.04114172    -0.04700
C3024       C  0.58684670  0.27720840  0.03797122    -0.01900
C3025       C  0.58670367  0.30063246  0.03659879     0.03100
C3026       C  0.60990734  0.32447805  0.04007116    -0.04700
C3027       C  0.63347075  0.32468365  0.04213957    -0.01800
C3028       C  0.63368159  0.30147513  0.04287465     0.03100
C3029       C  0.56266224  0.25294232  0.03929874     0.37800
C3030       C  0.65784814  0.34886111  0.04361309     0.37800
C3031       C  0.65812062  0.30243613  0.04686312     0.36200
C3032       C  0.56253079  0.29998761  0.03270445     0.36200
N3033       N  0.67762185  0.30347105  0.05077701    -0.38600
N3034       N  0.54312417  0.29918036  0.02901925    -0.38600
N3035       N  0.67746952  0.36785915  0.04499128    -0.38100
N3036       N  0.54325246  0.23373826  0.04107773    -0.38100
C3037       C  0.54959693  0.31267878  0.19224856    -0.04700
C3038       C  0.54389712  0.33271867  0.19207860    -0.01900
C3039       C  0.55350920  0.35145533  0.16948337     0.03100
C3040       C  0.56852422  0.34993263  0.14664486    -0.04700
C3041       C  0.57133130  0.32796743  0.14542778    -0.01800
C3042       C  0.56151639  0.30937904  0.16762967     0.03100
C3043       C  0.52814142  0.33415612  0.21491816     0.37800
C3044       C  0.58480220  0.32407528  0.12169207     0.37800
C3045       C  0.05535549  0.28693363  0.16296695     0.36200
C3046       C  0.54874133  0.37267364  0.17063842     0.36200
N3047       N  0.05762154  0.26914611  0.15988469    -0.38600
N3048       N  0.54448707  0.38934689  0.17184203    -0.38600
N3049       N  0.59565881  0.31986715  0.10388087    -0.38100
N3050       N  0.51517951  0.33539362  0.23261651    -0.38100
C3051       C  0.68811530  0.42285463  0.01655350    -0.04700
C3052       C  0.71121561  0.43931061  0.03172191    -0.01900
C3053       C  0.73311828  0.43703600  0.02757173     0.03100
C3054       C  0.73219208  0.41874018  0.00792869    -0.04700
C3055       C  0.71227087  0.40810784  0.98729680    -0.01800
C3056       C  0.68974304  0.40951493  0.99185807     0.03100
C3057       C  0.71228690  0.45738987  0.05307081     0.37800
C3058       C  0.71541844  0.39648132  0.96134068     0.37800
C3059       C  0.66807664  0.39578762  0.97230380     0.36200
C3060       C  0.75625955  0.45257928  0.04461176     0.36200
N3061       N  0.65089091  0.38477980  0.95654004    -0.38600
N3062       N  0.77472649  0.46522842  0.05805640    -0.38600
N3063       N  0.71845905  0.38827734  0.93996061    -0.38100
N3064       N  0.71394576  0.47191894  0.07050399    -0.38100
C3065       C  0.73909484  0.39115149  0.28041269    -0.04700
C3066       C  0.73713925  0.37812068  0.30679927    -0.01900
C3067       C  0.73696289  0.35454444  0.30647270     0.03100
C3068       C  0.73918634  0.34411713  0.27978206    -0.04700
C3069       C  0.74568175  0.35955230  0.25445460    -0.01800
C3070       C  0.74558999  0.38285336  0.25478152     0.03100
C3071       C  0.73503122  0.38859705  0.33429772     0.37800
C3072       C  0.75266930  0.35170490  0.22785269     0.37800
C3073       C  0.75273663  0.39851356  0.22864811     0.36200
C3074       C  0.73366538  0.34085513  0.33357859     0.36200
N3075       N  0.75864970  0.41075009  0.20762646    -0.38600
N3076       N  0.73135597  0.33023646  0.35535266    -0.38600
N3077       N  0.75830018  0.34589115  0.20635855    -0.38100
N3078       N  0.73399072  0.39706147  0.35647514    -0.38100
C3079       C  0.76609770  0.46227888  0.17402264    -0.04700
C3080       C  0.79041612  0.46406954  0.17414519    -0.01900
C3081       C  0.79751849  0.45312735  0.15114090     0.03100
C3082       C  0.78014036  0.43998581  0.12788332    -0.04700
C3083       C  0.75610952  0.43946560  0.12756501    -0.01800
C3084       C  0.74964023  0.45103116  0.14991953     0.03100
C3085       C  0.80800093  0.97717129  0.19535383     0.37800
C3086       C  0.73611506  0.42472611  0.10622433     0.37800
C3087       C  0.72428893  0.44862254  0.14950363     0.36200
C3088       C  0.82145698  0.45296791  0.15339423     0.36200
N3089       N  0.70370254  0.44557114  0.14898372    -0.38600
N3090       N  0.84443226  0.96203018  0.14639448    -0.38600
N3091       N  0.71937869  0.41238037  0.09037638    -0.38100
N3092       N  0.82228430  0.98800911  0.21409793    -0.38100
C3093       C  0.60255356  0.34957383  0.31643320    -0.04700
C3094       C  0.60159208  0.36773922  0.29809799    -0.01900
C3095       C  0.62414929  0.39118261  0.29229034     0.03100
C3096       C  0.64716854  0.39752809  0.30725731    -0.04700
C3097       C  0.64577395  0.38211966  0.33140465    -0.01800
C3098       C  0.62343268  0.35781683  0.33564657     0.03100
C3099       C  0.57765860  0.36132767  0.28372592     0.37800
C3100       C  0.66767198  0.38996397  0.35048081     0.37800
C3101       C  0.62253001  0.34085049  0.35851375     0.36200
C3102       C  0.62373337  0.40739505  0.26928846     0.36200
N3103       N  0.62178706  0.32758901  0.37716187    -0.38600
N3104       N  0.62269613  0.41952195  0.25041332    -0.38600
N3105       N  0.68493139  0.39621167  0.36607921    -0.38100
N3106       N  0.55845981  0.35645080  0.27267276    -0.38100
C3107       C  0.68325946  0.48143619  0.18916716    -0.04700
C3108       C  0.65669873  0.47128136  0.19344818    -0.01900
C3109       C  0.63967007  0.46163171  0.16947001     0.03100
C3110       C  0.64974932  0.46373639  0.14121218    -0.04700
C3111       C  0.67618141  0.48136224  0.13691804    -0.01800
C3112       C  0.69326783  0.48966680  0.16088925     0.03100
C3113       C  0.64760573  0.47239500  0.22221595     0.37800
C3114       C  0.68495921  0.49218328  0.10825633     0.37800
C3115       C  0.71705794  0.00078988  0.15544745     0.36200
C3116       C  0.61221304  0.44977373  0.17389116     0.36200
N3117       N  0.73899489  0.01301494  0.15102496    -0.38600
N3118       N  0.59032126  0.44095521  0.17766021    -0.38600
N3119       N  0.68677265  0.99157717  0.08470180    -0.38100
N3120       N  0.64079548  0.47436448  0.24508526    -0.38100
C3121       C  0.81831075  0.35405031  0.64665074    -0.04700
C3122       C  0.83317427  0.34301418  0.65548932    -0.01900
C3123       C  0.82147798  0.31915219  0.67016155     0.03100
C3124       C  0.79523807  0.30694743  0.67834892    -0.04700
C3125       C  0.78043429  0.31806454  0.66969788    -0.01800
C3126       C  0.79182871  0.34131092  0.65366081     0.03100
C3127       C  0.86065999  0.35607113  0.64968411     0.37800
C3128       C  0.75311715  0.30511281  0.67586602     0.37800
C3129       C  0.77645185  0.35266278  0.64541079     0.36200
C3130       C  0.83656786  0.30703813  0.67633231     0.36200
N3131       N  0.76428118  0.36179345  0.63880237    -0.38600
N3132       N  0.84856442  0.29723375  0.68050088    -0.38600
N3133       N  0.73120609  0.29528952  0.68010946    -0.38100
N3134       N  0.88264207  0.36624715  0.64556706    -0.38100
C3135       C  0.81824498  0.45685104  0.64883408    -0.04700
C3136       C  0.81071820  0.47252730  0.63390908    -0.01900
C3137       C  0.80045123  0.48570565  0.64922400     0.03100
C3138       C  0.79627354  0.48249172  0.67980395    -0.04700
C3139       C  0.80348994  0.46633245  0.69458648    -0.01800
C3140       C  0.81433472  0.45371405  0.67924672     0.03100
C3141       C  0.81344492  0.47523846  0.60254739     0.37800
C3142       C  0.80061365  0.46304856  0.72590461     0.37800
C3143       C  0.82056436  0.43657218  0.69479838     0.36200
C3144       C  0.79434563  0.50260682  0.63298657     0.36200
N3145       N  0.82545980  0.42283331  0.70714802    -0.38600
N3146       N  0.79477541  0.02132933  0.62423292    -0.38600
N3147       N  0.79832489  0.46028085  0.75085484    -0.38100
N3148       N  0.81503306  0.47722650  0.57749871    -0.38100
C3149       C  0.85794562  0.31190996  0.34552603    -0.04700
C3150       C  0.83397295  0.29714391  0.35995564    -0.01900
C3151       C  0.81060141  0.28612350  0.34415876     0.03100
C3152       C  0.81064441  0.28957307  0.31360163    -0.04700
C3153       C  0.83444631  0.30284437  0.29893538    -0.01800
C3154       C  0.85782747  0.31480218  0.31473970     0.03100
C3155       C  0.83292176  0.29418513  0.39137446     0.37800
C3156       C  0.83510169  0.30423246  0.26741189     0.37800
C3157       C  0.88152423  0.33082984  0.29883907     0.32600
C3158       C  0.78642833  0.27038753  0.35948886     0.36200
N3159       N  0.90008814  0.34418475  0.28584750    -0.38600
N3160       N  0.76719685  0.25781432  0.37174132    -0.38600
N3161       N  0.83587231  0.30488945  0.24227532    -0.38100
N3162       N  0.83193386  0.29177711  0.41639543    -0.38100
C3163       C  0.98195515  0.28373616  0.32326392    -0.04700
C3164       C  0.96746026  0.29159092  0.30658925    -0.01900
C3165       C  0.95527018  0.30363313  0.32023299     0.03100
C3166       C  0.95657432  0.30705376  0.35084868    -0.04700
C3167       C  0.96904599  0.29693818  0.36771776    -0.01800
C3168       C  0.98173259  0.28553535  0.35408427     0.03100
C3169       C  0.96548231  0.28788501  0.27532526     0.37800
C3170       C  0.96997995  0.29913750  0.39921133     0.37800
C3171       C  0.49566188  0.27754948  0.37128308     0.36200
C3172       C  0.94132420  0.31235506  0.30243229     0.36200
N3173       N  0.50588853  0.27005115  0.38629758    -0.38600
N3174       N  0.93044511  0.31922245  0.28763031    -0.38600
N3175       N  0.47000275  0.30170300  0.42233604    -0.38100
N3176       N  0.96357681  0.28463130  0.25043209    -0.38100
C3177       C  0.85287120  0.37284815  0.51381350    -0.04700
C3178       C  0.85063624  0.37400615  0.48336213    -0.01900
C3179       C  0.85941672  0.36131223  0.46480232     0.03100
C3180       C  0.87167778  0.34862462  0.47660183    -0.04700
C3181       C  0.86974955  0.34374179  0.50671177    -0.01800
C3182       C  0.86011215  0.35564107  0.52530320     0.03100
C3183       C  0.84149082  0.39000919  0.47102728     0.37800
C3184       C  0.87947338  0.32810989  0.51870386     0.37800
C3185       C  0.86038507  0.35246031  0.55650384     0.36200
C3186       C  0.85826745  0.36340320  0.43344120     0.36200
N3187       N  0.86073099  0.34997501  0.58140272    -0.38600
N3188       N  0.85749126  0.36504826  0.40842734    -0.38600
N3189       N  0.88693166  0.31538614  0.52844428    -0.38100
N3190       N  0.83436944  0.40277826  0.46063347    -0.38100
C3191       C  0.68834058  0.14197423  0.34514750    -0.04700
C3192       C  0.71558641  0.15857106  0.34630122    -0.01900
C3193       C  0.72761594  0.18171952  0.33010636     0.03100
C3194       C  0.71249248  0.18944696  0.31472006    -0.04700
C3195       C  0.68554553  0.17354059  0.31415761    -0.01800
C3196       C  0.67370369  0.14913155  0.32725989     0.03100
C3197       C  0.73155915  0.15201197  0.36365610     0.37800
C3198       C  0.66981440  0.18306900  0.30170565     0.37800
C3199       C  0.64659879  0.13152293  0.32133478     0.36200
C3200       C  0.75548388  0.19809693  0.33000592     0.36200
N3201       N  0.62527061  0.11723882  0.31553784    -0.38600
N3202       N  0.77769655  0.21118592  0.32970548    -0.38600
N3203       N  0.65739801  0.19122004  0.29285034    -0.38100
N3204       N  0.74459350  0.14728595  0.37770761    -0.38100
C3205       C  0.68808944  0.04080334  0.35025788    -0.04700
C3206       C  0.67247792  0.01563177  0.33897626    -0.01900
C3207       C  0.68371112  0.00352380  0.32381035     0.03100
C3208       C  0.71058905  0.01648503  0.31904549    -0.04700
C3209       C  0.72630318  0.04126285  0.33080045    -0.01800
C3210       C  0.71518574  0.05326655  0.34669513     0.03100
C3211       C  0.64669309  0.49902085  0.34951075     0.37800
C3212       C  0.75405528  0.05393406  0.32791585     0.37800
C3213       C  0.73185441  0.07831883  0.35951808     0.36200
C3214       C  0.66972839  0.47731604  0.31605231     0.36200
N3215       N  0.74544381  0.09811408  0.37003843    -0.38600
N3216       N  0.65656011  0.45640884  0.30818669    -0.38600
N3217       N  0.77626848  0.06430427  0.32614555    -0.38100
N3218       N  0.62510625  0.48591361  0.35511489    -0.38100
C3219       C  0.52255338  0.43197942  0.38533419    -0.04700
C3220       C  0.53506140  0.44367745  0.35884708    -0.01900
C3221       C  0.55979738  0.46618354  0.35930134     0.03100
C3222       C  0.57242037  0.47639464  0.38620067    -0.04700
C3223       C  0.56259965  0.46071177  0.41127480    -0.01800
C3224       C  0.53709274  0.44015574  0.41153747     0.03100
C3225       C  0.52185073  0.43414503  0.33131669     0.37800
C3226       C  0.57770121  0.46673872  0.43785705     0.37800
C3227       C  0.52551583  0.42977810  0.43973405     0.36200
C3228       C  0.57169407  0.47895233  0.33215708     0.36200
N3229       N  0.51668492  0.42285239  0.46262857    -0.38600
N3230       N  0.56270231  0.00463030  0.31641670    -0.38600
N3231       N  0.58917887  0.47142271  0.45937611    -0.38100
N3232       N  0.99888451  0.43137275  0.31315744    -0.38100
C3233       C  0.54077756  0.35320743  0.64677138    -0.04700
C3234       C  0.55429119  0.33963408  0.64854887    -0.01900
C3235       C  0.54410477  0.31670072  0.66492487     0.03100
C3236       C  0.52043359  0.30717084  0.67954646    -0.04700
C3237       C  0.50695592  0.32059454  0.67805365    -0.01800
C3238       C  0.51695589  0.34345306  0.66166849     0.03100
C3239       C  0.57922436  0.34968587  0.63461675     0.37800
C3240       C  0.48291986  0.31109511  0.69389988     0.37800
C3241       C  0.50239402  0.35662172  0.66003681     0.36200
C3242       C  0.55808410  0.30298930  0.66705989     0.36200
N3243       N  0.49070684  0.36705300  0.65899842    -0.38600
N3244       N  0.06952290  0.29135142  0.67210113    -0.38600
N3245       N  0.46387267  0.30375047  0.70664084    -0.38100
N3246       N  0.59909637  0.35769794  0.62350149    -0.38100
C3247       C  0.64269330  0.45137973  0.65386946    -0.04700
C3248       C  0.66637552  0.46157076  0.63869728    -0.01900
C3249       C  0.68984546  0.47127913  0.65401966     0.03100
C3250       C  0.69054896  0.47295891  0.68477567    -0.04700
C3251       C  0.66682040  0.46136895  0.70006876    -0.01800
C3252       C  0.64309208  0.45036767  0.68471565     0.03100
C3253       C  0.66700943  0.46294965  0.60715701     0.37800
C3254       C  0.66659469  0.46061574  0.73159676     0.37800
C3255       C  0.61905727  0.43717579  0.70084771     0.36200
C3256       C  0.71317818  0.47816982  0.63785848     0.36200
N3257       N  0.59993971  0.42649201  0.71375919    -0.38600
N3258       N  0.73151164  0.48311757  0.62474360    -0.38600
N3259       N  0.66546906  0.96156841  0.75129986    -0.38100
N3260       N  0.66765470  0.46411759  0.58200971    -0.38100
C3261       C  0.98180982  0.41112135  0.60789640    -0.04700
C3262       C  0.96617859  0.40391960  0.58257713    -0.01900
C3263       C  0.94329569  0.40486280  0.58217726     0.03100
C3264       C  0.93546628  0.41297300  0.60711241    -0.04700
C3265       C  0.94819910  0.41490030  0.63384749    -0.01800
C3266       C  0.97113905  0.41370275  0.63424412     0.03100
C3267       C  0.97399782  0.39678779  0.55597277     0.37800
C3268       C  0.93861528  0.41914942  0.66093829     0.37800
C3269       C  0.48648741  0.42350791  0.66302368     0.36200
C3270       C  0.92884982  0.39875736  0.55514599     0.36200
N3271       N  0.49737843  0.42719071  0.68486303    -0.38600
N3272       N  0.91822258  0.39444762  0.53307900    -0.38600
N3273       N  0.93099986  0.42230435  0.68271847    -0.38100
N3274       N  0.97991447  0.39167069  0.53420726    -0.38100
C3275       C  0.63466028  0.48275904  0.52554012    -0.04700
C3276       C  0.64874895  0.00765231  0.53102101    -0.01900
C3277       C  0.65846692  0.02910769  0.51215335     0.03100
C3278       C  0.65730257  0.02536247  0.48182591    -0.04700
C3279       C  0.64870333  0.49921479  0.47624685    -0.01800
C3280       C  0.63930888  0.47867271  0.49661628     0.03100
C3281       C  0.64845064  0.01105801  0.56222533     0.37800
C3282       C  0.65120784  0.49456533  0.44587029     0.37800
C3283       C  0.63396840  0.45336531  0.48801244     0.36200
C3284       C  0.66724745  0.05452307  0.52381047     0.36200
N3285       N  0.63039823  0.43326613  0.48155717    -0.38600
N3286       N  0.67408287  0.07463249  0.53361770    -0.38600
N3287       N  0.65329056  0.49077565  0.42164960    -0.38100
N3288       N  0.64818734  0.01369065  0.58711974    -0.38100
C3289       C  0.52611590  0.37709869  0.51293933    -0.04700
C3290       C  0.00027027  0.35432499  0.52551289    -0.01900
C3291       C  0.97836789  0.34221008  0.50704295     0.03100
C3292       C  0.98097011  0.34810906  0.47711862    -0.04700
C3293       C  0.51021625  0.36798011  0.46288768    -0.01800
C3294       C  0.53082381  0.38078377  0.48277517     0.03100
C3295       C  0.99722158  0.35026034  0.55666993     0.37800
C3296       C  0.51489205  0.37156250  0.43180860     0.37800
C3297       C  0.55634748  0.39904621  0.47220985     0.36200
C3298       C  0.95315578  0.32481974  0.51901313     0.36200
N3299       N  0.57656959  0.41359186  0.46323748    -0.38600
N3300       N  0.93323869  0.31049019  0.52889279    -0.38600
N3301       N  0.51867367  0.37422324  0.40702635    -0.38100
N3302       N  0.99482517  0.34709932  0.58154401    -0.38100
C3303       C  0.64886543  0.18861502  0.64546048    -0.04700
C3304       C  0.65730287  0.21131203  0.66163717    -0.01900
C3305       C  0.67892880  0.22033277  0.68025094     0.03100
C3306       C  0.69371738  0.20795778  0.68081957    -0.04700
C3307       C  0.68520044  0.18529072  0.66406151    -0.01800
C3308       C  0.66254795  0.17535992  0.64730924     0.03100
C3309       C  0.64315850  0.22487508  0.65987838     0.37800
C3310       C  0.69875467  0.17106590  0.66509099     0.37800
C3311       C  0.65266475  0.15068652  0.63288913     0.36200
C3312       C  0.68489611  0.24152724  0.69970464     0.36200
N3313       N  0.64490726  0.13092054  0.62172917    -0.38600
N3314       N  0.68897426  0.25792607  0.71576586    -0.38600
N3315       N  0.70946803  0.15964782  0.66564069    -0.38100
N3316       N  0.63203258  0.23584893  0.65834058    -0.38100
C3317       C  0.54215180  0.17936355  0.64998250    -0.04700
C3318       C  0.55034991  0.18995691  0.67794844    -0.01900
C3319       C  0.53819503  0.20162847  0.69242739     0.03100
C3320       C  0.51847560  0.20406858  0.67840787    -0.04700
C3321       C  0.51073367  0.19380193  0.64995724    -0.01800
C3322       C  0.52212204  0.18105367  0.63620611     0.03100
C3323       C  0.57185076  0.18942551  0.69157535     0.37800
C3324       C  0.99757491  0.20416988  0.63138670     0.37800
C3325       C  0.51267506  0.16899237  0.60809345     0.36200
C3326       C  0.54549394  0.21009312  0.72222859     0.36200
N3327       N  0.50488502  0.15920229  0.58581157    -0.38600
N3328       N  0.55135955  0.21662520  0.74605096    -0.38600
N3329       N  0.98478991  0.20959284  0.61783688    -0.38100
N3330       N  0.58912244  0.18917027  0.70231275    -0.38100
C3331       C  0.94269829  0.01482865  0.61449288    -0.04700
C3332       C  0.95880150  0.01948914  0.63897658    -0.01900
C3333       C  0.98292556  0.04255930  0.64067629     0.03100
C3334       C  0.99014916  0.06167605  0.61894169    -0.04700
C3335       C  0.97166457  0.05900601  0.59844591    -0.01800
C3336       C  0.94945623  0.03496244  0.59423086     0.03100
C3337       C  0.94966715  0.49710528  0.66334409     0.37800
C3338       C  0.97488796  0.08138032  0.58285053     0.37800
C3339       C  0.93563457  0.03050086  0.56720618     0.36200
C3340       C  0.50505157  0.04404776  0.65361939     0.36200
N3341       N  0.92568499  0.02675727  0.54481317    -0.38600
N3342       N  0.52039876  0.04509481  0.66961430    -0.38600
N3343       N  0.97683327  0.09939815  0.57141705    -0.38100
N3344       N  0.94388106  0.48104652  0.68054696    -0.38100
C3345       C  0.58821680  0.01778905  0.61266387    -0.04700
C3346       C  0.58401915  0.02591927  0.64019309    -0.01900
C3347       C  0.58582683  0.05026293  0.64302624     0.03100
C3348       C  0.59256879  0.06677866  0.61881886    -0.04700
C3349       C  0.60198212  0.06086634  0.59372158    -0.01800
C3350       C  0.59853588  0.03621245  0.58988386     0.03100
C3351       C  0.57619498  0.00891950  0.66519592     0.37800
C3352       C  0.61457751  0.07989998  0.57098919     0.37800
C3353       C  0.60187203  0.52916707  0.57055170     0.36200
C3354       C  0.58005322  0.05800629  0.67045194     0.36200
N3355       N  0.60330156  0.52445349  0.54648803    -0.38600
N3356       N  0.57581131  0.06439232  0.69245897    -0.38600
N3357       N  0.62520956  0.09427658  0.55230003    -0.38100
N3358       N  0.57009456  0.99551435  0.68530760    -0.38100
C3359       C  0.64878427  0.12724700  0.47635178    -0.04700
C3360       C  0.63032449  0.13419815  0.46893779    -0.01900
C3361       C  0.62178877  0.14530538  0.48970071     0.03100
C3362       C  0.63157503  0.14937230  0.51818655    -0.04700
C3363       C  0.65369685  0.14750632  0.52373370    -0.01800
C3364       C  0.66225415  0.13620808  0.50282138     0.03100
C3365       C  0.61851308  0.12788674  0.44052962     0.37800
C3366       C  0.66717451  0.15664255  0.55108028     0.37800
C3367       C  0.68367076  0.13244256  0.50926570     0.36200
C3368       C  0.60089946  0.14983015  0.48257435     0.36200
N3369       N  0.70103416  0.12984483  0.51443831    -0.38600
N3370       N  0.58426046  0.15338169  0.47668333    -0.38600
N3371       N  0.67869349  0.16450400  0.57245371    -0.38100
N3372       N  0.60898256  0.12265789  0.41786450    -0.38100
C3373       C  0.95917495  0.13867374  0.34610704    -0.04700
C3374       C  0.97406262  0.14297897  0.32040481    -0.01900
C3375       C  0.98549528  0.16695085  0.30597710     0.03100
C3376       C  0.98403432  0.18767202  0.31794318    -0.04700
C3377       C  0.96810633  0.18319750  0.34243502    -0.01800
C3378       C  0.95576696  0.15896230  0.35646133     0.03100
C3379       C  0.97868855  0.12327520  0.30884595     0.37800
C3380       C  0.96268437  0.20291068  0.35191599     0.37800
C3381       C  0.93920224  0.15515702  0.38123150     0.36200
C3382       C  0.99827309  0.16988609  0.27829966     0.36200
N3383       N  0.92611520  0.15230697  0.40099550    -0.38600
N3384       N  0.50351906  0.17093177  0.25231020    -0.38600
N3385       N  0.95756268  0.21810032  0.35938605    -0.38100
N3386       N  0.98245653  0.10765666  0.29949541    -0.38100
C3387       C  0.81057413  0.01220494  0.30868106    -0.04700
C3388       C  0.82536365  0.03935362  0.31079548    -0.01900
C3389       C  0.84775023  0.05122223  0.32834870     0.03100
C3390       C  0.85652893  0.03615257  0.34221171    -0.04700
C3391       C  0.84274610  0.00909287  0.33818600    -0.01800
C3392       C  0.81989536  0.99722834  0.32165864     0.03100
C3393       C  0.81817669  0.05521634  0.29418015     0.37800
C3394       C  0.85187245  0.99314721  0.35114223     0.37800
C3395       C  0.80663534  0.96960654  0.31675725     0.36200
C3396       C  0.86217739  0.07899759  0.33142794     0.36200
N3397       N  0.79620486  0.94763410  0.31265209    -0.38600
N3398       N  0.87368482  0.10115537  0.33410641    -0.38600
N3399       N  0.85895030  0.98019178  0.36115352    -0.38100
N3400       N  0.81294005  0.06796805  0.28033999    -0.38100
C3401       C  0.91856295  0.42956097  0.38171744    -0.04700
C3402       C  0.92326772  0.44287950  0.35478266    -0.01900
C3403       C  0.91970692  0.46433663  0.35239970     0.03100
C3404       C  0.91052944  0.47193504  0.37653869    -0.04700
C3405       C  0.90005141  0.45474700  0.40021430    -0.01800
C3406       C  0.90650107  0.43567888  0.40436038     0.03100
C3407       C  0.93440377  0.43663993  0.33041728     0.37800
C3408       C  0.88394528  0.45751426  0.42164699     0.37800
C3409       C  0.90353095  0.42525352  0.43352538     0.36200
C3410       C  0.92677149  0.47914847  0.32564091     0.36200
N3411       N  0.90241362  0.41837298  0.45726877    -0.38600
N3412       N  0.93241705  0.49090047  0.30423333    -0.38600
N3413       N  0.87455679  0.96282160  0.43982647    -0.38100
N3414       N  0.94335738  0.43185283  0.31089543    -0.38100
C3415       C  0.52027733  0.12584865  0.51938817    -0.04700
C3416       C  0.50639861  0.09898047  0.51310960    -0.01900
C3417       C  0.98103402  0.08779870  0.49804240     0.03100
C3418       C  0.97567883  0.10467797  0.48218602    -0.04700
C3419       C  0.48929191  0.13040613  0.48811776    -0.01800
C3420       C  0.51069991  0.14127602  0.50771677     0.03100
C3421       C  0.00964201  0.07877550  0.52659300     0.37800
C3422       C  0.48141052  0.14659810  0.47350966     0.37800
C3423       C  0.52396371  0.16856843  0.51384874     0.36200
C3424       C  0.96527033  0.06004147  0.49388423     0.36200
N3425       N  0.53449547  0.19041386  0.51871431    -0.38600
N3426       N  0.95355346  0.03800772  0.49022419    -0.38600
N3427       N  0.47494566  0.15939350  0.46179144    -0.38100
N3428       N  0.01437632  0.06326403  0.53399261    -0.38100
C3429       C  0.87313384  0.02031257  0.47793163    -0.04700
C3430       C  0.87918360  0.02705102  0.50742326    -0.01900
C3431       C  0.86753791  0.50596392  0.52801037     0.03100
C3432       C  0.85286137  0.47980721  0.52000100    -0.04700
C3433       C  0.84214964  0.47385524  0.49184193    -0.01800
C3434       C  0.85161301  0.49332578  0.47016372     0.03100
C3435       C  0.89763090  0.05346610  0.51517229     0.37800
C3436       C  0.82184536  0.44791863  0.48532096     0.37800
C3437       C  0.84121034  0.48758863  0.44097269     0.36200
C3438       C  0.87370356  0.01446884  0.55958990     0.36200
N3439       N  0.83257278  0.48298088  0.41778544    -0.38600
N3440       N  0.87791566  0.01985096  0.58393487    -0.38600
N3441       N  0.80509358  0.42732663  0.48040923    -0.38100
N3442       N  0.91239252  0.07454013  0.52134517    -0.38100
C3443       C  0.50997512  0.06108544  0.37536215    -0.04700
C3444       C  0.51220793  0.03958067  0.38305282    -0.01900
C3445       C  0.53650316  0.04224696  0.38740976     0.03100
C3446       C  0.55930702  0.06590036  0.38159610    -0.04700
C3447       C  0.55714987  0.08662423  0.37023305    -0.01800
C3448       C  0.53252582  0.08435602  0.36761824     0.03100
C3449       C  0.48938560  0.01428269  0.38672668     0.37800
C3450       C  0.57996990  0.11079758  0.36285689     0.37800
C3451       C  0.53057083  0.10619425  0.35784289     0.36200
C3452       C  0.53750239  0.02033052  0.39896877     0.36200
N3453       N  0.52905475  0.12360149  0.34984322    -0.38600
N3454       N  0.53703924  0.00247330  0.40893442    -0.38600
N3455       N  0.59772300  0.13059652  0.35718691    -0.38100
N3456       N  0.97093951  0.99707874  0.39594823    -0.38100
Fe3457     Fe  0.94119756  0.54108151  0.42479715     1.65800
Fe3458     Fe  0.93615809  0.55429661  0.35621724     1.73200
Fe3459     Fe  0.91551946  0.57750259  0.41152109     1.54400
O3460       O  0.88726748  0.54694919  0.43564953    -0.81100
O3461       O  0.94438346  0.59140818  0.34684200    -0.79400
O3462       O  0.91263214  0.53418349  0.45503026    -0.83600
O3463       O  0.96633677  0.57608908  0.44132323    -0.78400
O3464       O  0.88884480  0.56471473  0.37699858    -0.80200
O3465       O  0.97523916  0.56787724  0.36107705    -0.83000
C3466       C  0.96018736  0.59005027  0.45551860     0.97800
C3467       C  0.89149780  0.53407105  0.45436096     1.05200
O3468       O  0.93064425  0.55760204  0.39727508    -1.11900
O3469       O  0.92756031  0.51598692  0.36063061    -0.74400
O3470       O  0.91677759  0.50625145  0.40695015    -0.77900
O3471       O  0.94040868  0.59170959  0.44869372    -0.78600
C3472       C  0.91788522  0.49946715  0.38116224     0.96700
O3473       O  0.97123376  0.54460106  0.40004141    -0.76500
O3474       O  0.89836373  0.54054176  0.34857511    -0.81700
C3475       C  0.94820599  0.61094197  0.36144732     0.99300
C3476       C  0.88326261  0.54810834  0.35681690     1.05200
O3477       O  0.94207509  0.60917059  0.38815732    -0.77300
C3478       C  0.98390161  0.55741971  0.37801737     1.03500
Fe3479     Fe  0.56900841  0.62230949  0.64496731     1.65800
Fe3480     Fe  0.56184088  0.59956738  0.57608337     1.73200
Fe3481     Fe  0.58263457  0.66196473  0.58511724     1.54400
O3482       O  0.56510055  0.67258672  0.61618608    -0.81100
O3483       O  0.59727373  0.61804429  0.55634436    -0.79400
O3484       O  0.55106061  0.64347507  0.65168257    -0.83600
O3485       O  0.60478407  0.65398704  0.65076152    -0.78400
O3486       O  0.54811502  0.64709416  0.56063502    -0.80200
O3487       O  0.57511997  0.58173927  0.60159977    -0.83000
C3488       C  0.62139746  0.67227639  0.63513755     0.97800
C3489       C  0.55273655  0.66321567  0.63960339     1.05200
O3490       O  0.57133657  0.62808500  0.60243621    -1.11900
O3491       O  0.52634219  0.58000310  0.59548702    -0.74400
O3492       O  0.53269186  0.58983695  0.64279228    -0.77900
O3493       O  0.61676396  0.67765586  0.60967650    -0.78600
C3494       C  0.51842185  0.57713318  0.62155844     0.96700
O3495       O  0.58689739  0.60020603  0.64472563    -0.76500
O3496       O  0.54671116  0.61198015  0.54440509    -0.81700
C3497       C  0.60807701  0.63992977  0.54419619     0.99300
C3498       C  0.53769474  0.62683050  0.54493467     1.05200
O3499       O  0.60233244  0.65698083  0.55044303    -0.77300
C3500       C  0.58569940  0.58428497  0.62590249     1.03500
Fe3501     Fe  0.56052923  0.94805053  0.55834635     1.65800
Fe3502     Fe  0.56622686  0.93642610  0.62966904     1.73200
Fe3503     Fe  0.59003474  0.91395497  0.57592892     1.54400
O3504       O  0.56199359  0.89193145  0.54477987    -0.81100
O3505       O  0.60348611  0.94643210  0.64123250    -0.79400
O3506       O  0.54454197  0.91551157  0.53244627    -0.83600
O3507       O  0.59534142  0.96533450  0.53753822    -0.78400
O3508       O  0.56902169  0.88377686  0.60454689    -0.80200
O3509       O  0.57898012  0.97544477  0.62695943    -0.83000
C3510       C  0.61427362  0.96183730  0.53507413     0.97800
C3511       C  0.54559393  0.89506388  0.53070433     1.05200
O3512       O  0.57229496  0.93276569  0.58809202    -1.11900
O3513       O  0.52778226  0.92648955  0.62303279    -0.74400
O3514       O  0.52494426  0.93361256  0.57626129    -0.77900
O3515       O  0.61447906  0.94262129  0.54629089    -0.78600
C3516       C  0.51479967  0.92645914  0.60110140     0.96700
O3517       O  0.57358059  0.98193761  0.58078619    -0.76500
O3518       O  0.55317440  0.89836759  0.63843139    -0.81700
C3519       C  0.62143028  0.94361610  0.63064627     0.99300
C3520       C  0.55608326  0.88070447  0.62757200     1.05200
O3521       O  0.61918030  0.93245968  0.60645044    -0.77300
C3522       C  0.58001684  0.99012701  0.60657670     1.03500
Fe3523     Fe  0.62734252  0.55874586  0.36297254     1.65800
Fe3524     Fe  0.60902543  0.54832741  0.43361710     1.73200
Fe3525     Fe  0.67263550  0.58437447  0.41799519     1.54400
O3526       O  0.68510471  0.56702943  0.38811971    -0.81100
O3527       O  0.62086961  0.58296422  0.45268778    -0.79400
O3528       O  0.65382131  0.54793073  0.35507822    -0.83600
O3529       O  0.65378354  0.59639352  0.35212577    -0.78400
O3530       O  0.66927511  0.55626952  0.44752773    -0.80200
O3531       O  0.58314974  0.55336840  0.40936823    -0.83000
C3532       C  0.67269392  0.61563704  0.36422727     0.97800
C3533       C  0.67519260  0.55279353  0.36586713     1.05200
O3534       O  0.63648889  0.56408451  0.40472336    -1.11900
O3535       O  0.59579538  0.51300723  0.41595842    -0.74400
O3536       O  0.59985388  0.51979068  0.36837103    -0.77900
O3537       O  0.68067775  0.61419366  0.38939075    -0.78600
C3538       C  0.59112978  0.50464476  0.39012913     0.96700
O3539       O  0.59916450  0.56885850  0.36569038    -0.76500
O3540       O  0.62901562  0.53914995  0.46301274    -0.81700
C3541       C  0.64275264  0.60242553  0.45817040     0.99300
C3542       C  0.65090426  0.54105980  0.46405021     1.05200
O3543       O  0.66386134  0.60441739  0.44938899    -0.77300
C3544       C  0.58151062  0.56163715  0.38457867     1.03500
Fe3545     Fe  0.94104875  0.87231221  0.36212796     1.65800
Fe3546     Fe  0.94844520  0.89028816  0.43343469     1.73200
Fe3547     Fe  0.91397028  0.82638731  0.41649211     1.54400
O3548       O  0.88579301  0.81797884  0.38518675    -0.81100
O3549       O  0.96419710  0.87291681  0.45691764    -0.79400
O3550       O  0.90297529  0.84836549  0.35108529    -0.83600
O3551       O  0.94983207  0.84393714  0.35301294    -0.78400
O3552       O  0.89089316  0.83279795  0.44547267    -0.80200
O3553       O  0.98333120  0.91131254  0.41319338    -0.83000
C3554       C  0.94548923  0.82306140  0.36493515     0.97800
C3555       C  0.88409470  0.82805284  0.36149042     1.05200
O3556       O  0.93449226  0.86290870  0.40391289    -1.11900
O3557       O  0.93507331  0.91082529  0.41256609    -0.74400
O3558       O  0.93255080  0.90169823  0.36564428    -0.77900
O3559       O  0.93301176  0.81485031  0.38857057    -0.78600
C3560       C  0.93025696  0.91404390  0.38668451     0.96700
O3561       O  0.98024537  0.89777881  0.36781028    -0.76500
O3562       O  0.91501641  0.87401259  0.45756233    -0.81700
C3563       C  0.96001346  0.85029953  0.46040668     0.99300
C3564       C  0.89418815  0.85258475  0.45903767     1.05200
O3565       O  0.94106650  0.83067826  0.44855432    -0.77300
C3566       C  0.99331115  0.91234523  0.38866595     1.03500
Fe3567     Fe  0.87806931  0.93664170  0.63258398     1.65800
Fe3568     Fe  0.89419299  0.94688697  0.56077809     1.73200
Fe3569     Fe  0.83055444  0.91424517  0.57998963     1.54400
O3570       O  0.82063805  0.88439608  0.60964229    -0.81100
O3571       O  0.87804858  0.96620668  0.54187317    -0.79400
O3572       O  0.85224708  0.89896077  0.64239332    -0.83600
O3573       O  0.85210652  0.94797535  0.64455200    -0.78400
O3574       O  0.83496592  0.89101432  0.54925947    -0.80200
O3575       O  0.91828429  0.98001178  0.58286711    -0.83000
C3576       C  0.83174456  0.94616739  0.63386447     0.97800
C3577       C  0.83111644  0.88130189  0.63214388     1.05200
O3578       O  0.86753779  0.93256947  0.59122863    -1.11900
O3579       O  0.91309548  0.92959594  0.57778823    -0.74400
O3580       O  0.90524481  0.92559325  0.62526538    -0.77900
O3581       O  0.82192742  0.93464619  0.60997838    -0.78600
C3582       C  0.91657084  0.92338904  0.60305240     0.96700
O3583       O  0.90584425  0.97511345  0.62891568    -0.76500
O3584       O  0.87517997  0.91566027  0.53349404    -0.81700
C3585       C  0.85534625  0.96203866  0.53843372     0.99300
C3586       C  0.85360008  0.89495347  0.53278431     1.05200
O3587       O  0.83559298  0.94233905  0.54904707    -0.77300
C3588       C  0.92072178  0.98851366  0.60846430     1.03500
Fe3589     Fe  0.72788630  0.95492361  0.30651803     1.65800
Fe3590     Fe  0.70479416  0.93207297  0.23943854     1.73200
Fe3591     Fe  0.74881493  0.49858125  0.24814294     1.54400
O3592       O  0.73456727  0.51274330  0.28022994    -0.81100
O3593       O  0.73309775  0.94334234  0.20928012    -0.79400
O3594       O  0.71864534  0.98238783  0.31636922    -0.83600
O3595       O  0.76648170  0.98095858  0.31042900    -0.78400
O3596       O  0.71792180  0.99294726  0.22018697    -0.80200
O3597       O  0.71772053  0.90943719  0.25741158    -0.83000
C3598       C  0.78587819  0.50060160  0.29595677     0.97800
C3599       C  0.72397400  0.50452331  0.30508340     1.05200
O3600       O  0.72679285  0.96133275  0.26446736    -1.11900
O3601       O  0.67355665  0.91685486  0.26623853    -0.74400
O3602       O  0.68902183  0.92765947  0.31070922    -0.77900
O3603       O  0.78157190  0.50843194  0.27224562    -0.78600
C3604       C  0.67032682  0.91535127  0.29341321     0.96700
O3605       O  0.73732437  0.92675559  0.29937258    -0.76500
O3606       O  0.68916453  0.95102723  0.21825734    -0.81700
C3607       C  0.75352905  0.96318017  0.20083278     0.99300
C3608       C  0.69676920  0.97413268  0.21124864     1.05200
O3609       O  0.76269428  0.98493020  0.21347979    -0.77300
C3610       C  0.73083603  0.91008117  0.27934972     1.03500
Fe3611     Fe  0.62566243  0.89133381  0.08759612     1.65800
Fe3612     Fe  0.60239433  0.89189755  0.02072799     1.73200
Fe3613     Fe  0.58213620  0.91150125  0.08065089     1.54400
O3614       O  0.56582810  0.88111495  0.11079186    -0.81100
O3615       O  0.60999434  0.92850363  0.01267025    -0.79400
O3616       O  0.59545317  0.86938049  0.11525088    -0.83600
O3617       O  0.63855192  0.92351710  0.11312596    -0.78400
O3618       O  0.55036921  0.89015806  0.05460507    -0.80200
O3619       O  0.64144741  0.90525604  0.01752155    -0.83000
C3620       C  0.63038406  0.93825096  0.12070662     0.97800
C3621       C  0.57355492  0.86657163  0.12139790     1.05200
O3622       O  0.60326553  0.89823860  0.06300452    -1.11900
O3623       O  0.59510414  0.85458934  0.02489346    -0.74400
O3624       O  0.61705448  0.85836068  0.06532397    -0.77900
O3625       O  0.60972765  0.93598651  0.11065768    -0.78600
C3626       C  0.60543666  0.84625194  0.04246362     0.96700
O3627       O  0.65772651  0.91210267  0.06199321    -0.76500
O3628       O  0.56345461  0.87722223  0.01648084    -0.81700
C3629       C  0.60695307  0.94541485  0.02553616     0.99300
C3630       C  0.54619410  0.87857130  0.03058083     1.05200
O3631       O  0.59685880  0.94200394  0.05084831    -0.77300
C3632       C  0.66042021  0.91252840  0.03461268     1.03500
Fe3633     Fe  0.54167749  0.76821429  0.32131117     1.65800
Fe3634     Fe  0.57329846  0.78811874  0.25741942     1.73200
Fe3635     Fe  0.01103070  0.75030059  0.25769804     1.54400
O3636       O  0.99927749  0.71668907  0.28066093    -0.81100
O3637       O  0.55868903  0.80152309  0.22622645    -0.79400
O3638       O  0.51366293  0.72989165  0.32498438    -0.83600
O3639       O  0.51499797  0.77897320  0.32212431    -0.78400
O3640       O  0.02837196  0.73740322  0.22623320    -0.80200
O3641       O  0.58275256  0.82029095  0.28049697    -0.83000
C3642       C  0.99735477  0.77497489  0.31011881     0.97800
C3643       C  0.99918582  0.71279490  0.30782525     1.05200
O3644       O  0.54086545  0.76800980  0.27820037    -1.11900
O3645       O  0.59301443  0.77706378  0.28511326    -0.74400
O3646       O  0.56854412  0.75688452  0.32363061    -0.77900
O3647       O  0.99101490  0.76127514  0.28692271    -0.78600
C3648       C  0.58806650  0.76335098  0.30783392     0.96700
O3649       O  0.56957141  0.80714636  0.32559219    -0.76500
O3650       O  0.56624837  0.75787012  0.23185261    -0.81700
C3651       C  0.53689955  0.79583025  0.21607527     0.99300
C3652       C  0.54712386  0.73795406  0.22138676     1.05200
O3653       O  0.51590827  0.77762408  0.22630910    -0.77300
C3654       C  0.58164262  0.82490354  0.30706761     1.03500
Fe3655     Fe  0.60730338  0.70483192  0.01956554     1.65800
Fe3656     Fe  0.62983449  0.72840373  0.08671658     1.73200
Fe3657     Fe  0.58488989  0.66442112  0.07930883     1.54400
O3658       O  0.55290768  0.65618038  0.05355022    -0.81100
O3659       O  0.64375234  0.70863414  0.10925807    -0.79400
O3660       O  0.56902281  0.68012272  0.01415702    -0.83600
O3661       O  0.61517883  0.67620297  0.01187057    -0.78400
O3662       O  0.57006566  0.67769696  0.11203697    -0.80200
O3663       O  0.66186849  0.74242350  0.06046769    -0.83000
C3664       C  0.61078085  0.65578555  0.02489783     0.97800
C3665       C  0.55014046  0.66318367  0.02834680     1.05200
O3666       O  0.60717607  0.69913919  0.06194958    -1.11900
O3667       O  0.61884850  0.75185002  0.06685514    -0.74400
O3668       O  0.59982956  0.73465017  0.02438796    -0.77900
O3669       O  0.59845738  0.64811468  0.04891524    -0.78600
C3670       C  0.60773691  0.75223013  0.04353745     0.96700
O3671       O  0.64600828  0.73065665  0.01623077    -0.76500
O3672       O  0.60122733  0.71870834  0.11665868    -0.81700
C3673       C  0.63467344  0.68554439  0.11736596     0.99300
C3674       C  0.58020884  0.69938290  0.12498659     1.05200
O3675       O  0.61310943  0.66723616  0.10837556    -0.77300
C3676       C  0.66471319  0.74347485  0.03316779     1.03500
Fe3677     Fe  0.78989189  0.89356405  0.00404098     1.65800
Fe3678     Fe  0.75734472  0.87572146  0.06648472     1.73200
Fe3679     Fe  0.82152806  0.90880872  0.06991395     1.54400
O3680       O  0.84026704  0.89716505  0.04025939    -0.81100
O3681       O  0.76622929  0.90898744  0.08653807    -0.79400
O3682       O  0.81426089  0.87937416  0.00187175    -0.83600
O3683       O  0.82044605  0.93059478  0.00201305    -0.78400
O3684       O  0.81025299  0.87480896  0.09408347    -0.80200
O3685       O  0.73760057  0.88370840  0.03556693    -0.83000
C3686       C  0.83444825  0.94788630  0.02017683     0.97800
C3687       C  0.83456840  0.88505974  0.01602593     1.05200
O3688       O  0.79001072  0.89282125  0.04665395    -1.11900
O3689       O  0.74881817  0.84242680  0.04628956    -0.74400
O3690       O  0.75922928  0.85562353  0.00042799    -0.77900
O3691       O  0.83535280  0.94346920  0.04721189    -0.78600
C3692       C  0.74870195  0.83782130  0.01939452     0.96700
O3693       O  0.76634005  0.90937628  0.00326245    -0.76500
O3694       O  0.76997523  0.86446837  0.10207588    -0.81700
C3695       C  0.78417980  0.92187505  0.10443194     0.99300
C3696       C  0.78875607  0.86119027  0.10709114     1.05200
O3697       O  0.80568084  0.92227181  0.10251970    -0.77300
C3698       C  0.74546573  0.90155687  0.01696007     1.03500
Fe3699     Fe  0.70682241  0.76781994  0.23982597     1.65800
Fe3700     Fe  0.73046668  0.76901824  0.30698517     1.73200
Fe3701     Fe  0.74952856  0.74697361  0.24814703     1.54400
O3702       O  0.72122181  0.72284033  0.21811932    -0.81100
O3703       O  0.76856007  0.78129872  0.31178732    -0.79400
O3704       O  0.69009465  0.73230439  0.21991205    -0.83600
O3705       O  0.73490852  0.78437838  0.20864552    -0.78400
O3706       O  0.73314004  0.71708664  0.27883082    -0.80200
O3707       O  0.74048520  0.80681769  0.29923166    -0.83000
C3708       C  0.75664492  0.78723797  0.20186768     0.97800
C3709       C  0.69908293  0.71867001  0.21060987     1.05200
O3710       O  0.72910298  0.76131732  0.26503562    -1.11900
O3711       O  0.69224541  0.75835933  0.31143058    -0.74400
O3712       O  0.67581648  0.75258638  0.26728720    -0.77900
O3713       O  0.76677174  0.77630391  0.21612228    -0.78600
C3714       C  0.67348415  0.75243794  0.29457697     0.96700
O3715       O  0.72066429  0.80393233  0.25719132    -0.76500
O3716       O  0.72065066  0.73183877  0.31683062    -0.81700
C3717       C  0.78572634  0.77884071  0.29914028     0.99300
C3718       C  0.72265555  0.71429655  0.30385146     1.05200
O3719       O  0.78171354  0.76756841  0.27478344    -0.77300
C3720       C  0.73381935  0.81673675  0.27906882     1.03500
Fe3721     Fe  0.88628262  0.61290724  0.90037342     1.65800
Fe3722     Fe  0.89407583  0.60316275  0.97172556     1.73200
Fe3723     Fe  0.92263926  0.58584926  0.91767981     1.54400
O3724       O  0.89621051  0.56159330  0.88609084    -0.81100
O3725       O  0.93196915  0.61729800  0.98370950    -0.79400
O3726       O  0.87314022  0.58004861  0.87533942    -0.83600
O3727       O  0.91953009  0.63194953  0.87727178    -0.78400
O3728       O  0.90451711  0.55524409  0.94656395    -0.80200
O3729       O  0.90189379  0.64025014  0.96856974    -0.83000
C3730       C  0.93914484  0.63004265  0.87254805     0.97800
C3731       C  0.87827504  0.56219979  0.87204117     1.05200
O3732       O  0.90113705  0.60068889  0.92996649    -1.11900
O3733       O  0.85461772  0.58891947  0.96593806    -0.74400
O3734       O  0.85086430  0.59567435  0.91936260    -0.77900
O3735       O  0.94364361  0.61439688  0.88634223    -0.78600
C3736       C  0.84096960  0.58748593  0.94412691     0.96700
O3737       O  0.89723746  0.64699106  0.92183265    -0.76500
O3738       O  0.88546612  0.56671466  0.98007877    -0.81700
C3739       C  0.95141583  0.61756174  0.97271888     0.99300
C3740       C  0.89044820  0.55061534  0.96892531     1.05200
O3741       O  0.95100609  0.60762483  0.94816031    -0.77300
C3742       C  0.90183139  0.65425775  0.94812835     1.03500
Fe3743     Fe  0.96239757  0.73061397  0.68968915     1.65800
Fe3744     Fe  0.94361703  0.72170009  0.75989368     1.73200
Fe3745     Fe  0.50994536  0.75344274  0.74383591     1.54400
O3746       O  0.51937759  0.73616705  0.71044731    -0.81100
O3747       O  0.96072679  0.75541177  0.78203540    -0.79400
O3748       O  0.98344471  0.71265974  0.68267798    -0.83600
O3749       O  0.99338328  0.76641063  0.68013190    -0.78400
O3750       O  0.50373154  0.72240829  0.76968091    -0.80200
O3751       O  0.92387660  0.73560826  0.73775185    -0.83000
C3752       C  0.51035455  0.78445154  0.69150020     0.97800
C3753       C  0.50622659  0.71785868  0.69271658     1.05200
O3754       O  0.97121278  0.73431232  0.73146773    -1.11900
O3755       O  0.92274081  0.68668034  0.74042547    -0.74400
O3756       O  0.92937650  0.69454144  0.69298206    -0.77900
O3757       O  0.51762382  0.78434088  0.71749472    -0.78600
C3758       C  0.91669669  0.68023869  0.71416762     0.96700
O3759       O  0.93980530  0.74775456  0.69317879    -0.76500
O3760       O  0.95972093  0.70570488  0.78562566    -0.81700
C3761       C  0.98340669  0.77038331  0.79073626     0.99300
C3762       C  0.97990778  0.70404371  0.78577145     1.05200
O3763       O  0.50562980  0.77310019  0.77984584    -0.77300
C3764       C  0.92453305  0.74582004  0.71345520     1.03500
Fe3765     Fe  0.88951680  0.78882954  0.97159169     1.65800
Fe3766     Fe  0.88249709  0.76730586  0.90182942     1.73200
Fe3767     Fe  0.92095614  0.83140152  0.91498119     1.54400
O3768       O  0.90425237  0.84705467  0.94191657    -0.81100
O3769       O  0.91500622  0.77972347  0.87788716    -0.79400
O3770       O  0.88102257  0.81732520  0.97531094    -0.83600
O3771       O  0.92739017  0.81347544  0.98381719    -0.78400
O3772       O  0.89501730  0.82811912  0.88257042    -0.80200
O3773       O  0.89440944  0.74665937  0.92634187    -0.83000
C3774       C  0.94797903  0.83075294  0.97183460     0.97800
C3775       C  0.88911104  0.83918182  0.96379775     1.05200
O3776       O  0.89767430  0.79592709  0.92953848    -1.11900
O3777       O  0.84742551  0.74934975  0.92102639    -0.74400
O3778       O  0.85008223  0.76302316  0.96607450    -0.77900
O3779       O  0.94860405  0.83836831  0.94591177    -0.78600
C3780       C  0.83704197  0.74888148  0.94495852     0.96700
O3781       O  0.89741110  0.75940947  0.97252765    -0.76500
O3782       O  0.86918950  0.78581901  0.87558283    -0.81700
C3783       C  0.93670877  0.79973403  0.87483124     0.99300
C3784       C  0.87563291  0.80906918  0.87065626     1.05200
O3785       O  0.94188910  0.82087820  0.88681054    -0.77300
C3786       C  0.89899479  0.74543808  0.95308422     1.03500
Fe3787     Fe  0.70495978  0.59768857  0.96509338     1.65800
Fe3788     Fe  0.72386330  0.60789880  0.89422150     1.73200
Fe3789     Fe  0.65954730  0.57633077  0.90987796     1.54400
O3790       O  0.64787433  0.54699288  0.94041789    -0.81100
O3791       O  0.70866015  0.62646299  0.87193138    -0.79400
O3792       O  0.67892068  0.55947064  0.97385581    -0.83600
O3793       O  0.67768922  0.60728264  0.97547487    -0.78400
O3794       O  0.66509936  0.55257188  0.88058781    -0.80200
O3795       O  0.74550877  0.64130254  0.91616433    -0.83000
C3796       C  0.65833403  0.60660376  0.96356992     0.97800
C3797       C  0.65710104  0.54302077  0.96347220     1.05200
O3798       O  0.69597442  0.59385680  0.92320189    -1.11900
O3799       O  0.74281530  0.59199079  0.91369648    -0.74400
O3800       O  0.73358712  0.58801524  0.96057307    -0.77900
O3801       O  0.64996618  0.59684319  0.93857646    -0.78600
C3802       C  0.74591392  0.58617283  0.93917398     0.96700
O3803       O  0.73155171  0.63703348  0.96140310    -0.76500
O3804       O  0.70655518  0.57595552  0.86842606    -0.81700
C3805       C  0.68661849  0.62363131  0.86774531     0.99300
C3806       C  0.68484758  0.55555372  0.86685237     1.05200
O3807       O  0.66616697  0.60472925  0.87835522    -0.77300
C3808       C  0.74608899  0.65077959  0.94076483     1.03500
Fe3809     Fe  0.77011607  0.53854279  0.69621514     1.65800
Fe3810     Fe  0.78310548  0.55756358  0.76673882     1.73200
Fe3811     Fe  0.74954643  0.99153767  0.75145545     1.54400
O3812       O  0.71906274  0.98137914  0.72276129    -0.81100
O3813       O  0.80014560  0.54182890  0.79122622    -0.79400
O3814       O  0.73352667  0.50820565  0.68748937    -0.83600
O3815       O  0.78661387  0.51637940  0.68631705    -0.78400
O3816       O  0.72668685  0.99586934  0.78389685    -0.80200
O3817       O  0.81744559  0.57768067  0.74514789    -0.83000
C3818       C  0.78474370  0.99582669  0.69873420     0.97800
C3819       C  0.71749524  0.98973639  0.69781556     1.05200
O3820       O  0.76838052  0.52975031  0.73797655    -1.11900
O3821       O  0.76940068  0.57817921  0.74592459    -0.74400
O3822       O  0.75429882  0.56214106  0.70211984    -0.77900
O3823       O  0.76950506  0.98356279  0.71975650    -0.78600
C3824       C  0.75852813  0.57820595  0.72237291     0.96700
O3825       O  0.80666077  0.57103850  0.69827490    -0.76500
O3826       O  0.74977081  0.54073339  0.79079869    -0.81700
C3827       C  0.79984887  0.52074762  0.79247110     0.99300
C3828       C  0.73144160  0.51801397  0.79546685     1.05200
O3829       O  0.77951575  0.99777106  0.78010088    -0.77300
C3830       C  0.82222030  0.58374659  0.71856783     1.03500
Fe3831     Fe  0.78498606  0.72135096  0.76730365     1.65800
Fe3832     Fe  0.77456956  0.72815384  0.69583368     1.73200
Fe3833     Fe  0.75225283  0.75232245  0.74935564     1.54400
O3834       O  0.73020109  0.72502435  0.78145534    -0.81100
O3835       O  0.78655396  0.76575557  0.68475072    -0.79400
O3836       O  0.75183530  0.70506313  0.79198663    -0.83600
O3837       O  0.80163954  0.75552524  0.78971547    -0.78400
O3838       O  0.72162288  0.73120509  0.72125003    -0.80200
O3839       O  0.81329743  0.73911144  0.69961456    -0.83000
C3840       C  0.79910287  0.77509318  0.79158785     0.97800
C3841       C  0.73240817  0.70775769  0.79493265     1.05200
O3842       O  0.77053134  0.73394472  0.73742505    -1.11900
O3843       O  0.76285224  0.68929513  0.70168578    -0.74400
O3844       O  0.77108398  0.68604183  0.74806357    -0.77900
O3845       O  0.78120641  0.77658645  0.77865913    -0.78600
C3846       C  0.76335226  0.67616275  0.72312617     0.96700
O3847       O  0.81960727  0.73520273  0.74627934    -0.76500
O3848       O  0.73689522  0.71719577  0.68623034    -0.81700
C3849       C  0.78357826  0.78365704  0.69488910     0.99300
C3850       C  0.71880236  0.71932925  0.69748640     1.05200
O3851       O  0.77116253  0.78120186  0.71824903    -0.77300
C3852       C  0.82796366  0.74091003  0.72047775     1.03500
C3853       C  0.75571230  0.64835130  0.71951238    -0.04700
C3854       C  0.74524717  0.63129213  0.74349549    -0.01900
C3855       C  0.74416532  0.60738361  0.74344246     0.03100
C3856       C  0.75247131  0.59932696  0.71890337    -0.04700
C3857       C  0.76039403  0.61509920  0.69372817    -0.01800
C3858       C  0.76215451  0.63951750  0.69405928     0.03100
C3859       C  0.73699209  0.63876259  0.76949251     0.37800
C3860       C  0.76957863  0.60765373  0.66851797     0.37800
C3861       C  0.77283644  0.65631829  0.66899720     0.36200
C3862       C  0.73701188  0.59250999  0.77020532     0.36200
N3863       N  0.78145111  0.66968341  0.64896768    -0.38600
N3864       N  0.73226754  0.58175409  0.79223273    -0.38600
N3865       N  0.77707300  0.60183344  0.64847012    -0.38100
N3866       N  0.73085609  0.64438224  0.79075869    -0.38100
C3867       C  0.71128362  0.68855485  0.81403847    -0.04700
C3868       C  0.69316301  0.66422627  0.80249018    -0.01900
C3869       C  0.68100104  0.64230458  0.82092570     0.03100
C3870       C  0.68641312  0.64482217  0.85095582    -0.04700
C3871       C  0.69982599  0.66986463  0.86287438    -0.01800
C3872       C  0.71298583  0.69160408  0.84449434     0.03100
C3873       C  0.68892291  0.66141631  0.77134152     0.37800
C3874       C  0.70199287  0.67300305  0.89417730     0.37800
C3875       C  0.73020528  0.71655625  0.85707489     0.36200
C3876       C  0.66407023  0.61711695  0.80882018     0.36200
N3877       N  0.74397468  0.73612176  0.86789664    -0.38600
N3878       N  0.65014096  0.59716750  0.79889235    -0.38600
N3879       N  0.70377525  0.67569903  0.91913286    -0.38100
N3880       N  0.68556680  0.65926695  0.74646625    -0.38100
C3881       C  0.68459568  0.53441066  0.84970660    -0.04700
C3882       C  0.68100442  0.53330384  0.81933935    -0.01900
C3883       C  0.69343414  0.52389775  0.80121989     0.03100
C3884       C  0.70967622  0.51570967  0.81342675    -0.04700
C3885       C  0.70940991  0.51251542  0.84381910    -0.01800
C3886       C  0.69684509  0.52178895  0.86193981     0.03100
C3887       C  0.66625467  0.54370563  0.80654739     0.37800
C3888       C  0.70689467  0.98904118  0.85006376     0.37800
C3889       C  0.69009415  0.01532809  0.88854601     0.36200
C3890       C  0.69166327  0.52508125  0.76983552     0.36200
N3891       N  0.69057847  0.01302062  0.91349430    -0.38600
N3892       N  0.69041386  0.52617384  0.74480079    -0.38600
N3893       N  0.71180929  0.97414256  0.85916314    -0.38100
N3894       N  0.65426395  0.55161836  0.79589031    -0.38100
C3895       C  0.80893566  0.72933976  0.94750305    -0.04700
C3896       C  0.79424311  0.72072222  0.92166965    -0.01900
C3897       C  0.77330341  0.69545941  0.91968747     0.03100
C3898       C  0.76497808  0.67902030  0.94450022    -0.04700
C3899       C  0.77657878  0.68965283  0.97176269    -0.01800
C3900       C  0.79846026  0.71482594  0.97322059     0.03100
C3901       C  0.80180589  0.73703543  0.89595398     0.37800
C3902       C  0.76769780  0.67417463  0.99799110     0.37800
C3903       C  0.81069224  0.72520333  0.00099470     0.36200
C3904       C  0.76253743  0.68616007  0.89093548     0.36200
N3905       N  0.82029341  0.73350146  0.02324990    -0.38600
N3906       N  0.75527279  0.67909516  0.86757415    -0.38600
N3907       N  0.76066149  0.66184181  0.01895799    -0.38100
N3908       N  0.80739942  0.74914050  0.87483441    -0.38100
C3909       C  0.85897750  0.81324658  0.85022537    -0.04700
C3910       C  0.83412830  0.80734975  0.85925535    -0.01900
C3911       C  0.81412711  0.79941297  0.83851552     0.03100
C3912       C  0.81901509  0.79684539  0.80917293    -0.04700
C3913       C  0.84489732  0.80883631  0.79979204    -0.01800
C3914       C  0.86497957  0.81682850  0.82037965     0.03100
C3915       C  0.82888160  0.80778965  0.88994642     0.37800
C3916       C  0.85050968  0.81147391  0.76895029     0.37800
C3917       C  0.89132744  0.82669938  0.81095100     0.36200
C3918       C  0.78867508  0.79374688  0.84711578     0.36200
N3919       N  0.91237276  0.83462893  0.80339509    -0.38600
N3920       N  0.76858975  0.79017207  0.85381778    -0.38600
N3921       N  0.85506760  0.81382983  0.74433059    -0.38100
N3922       N  0.82479476  0.80817274  0.91447148    -0.38100
C3923       C  0.89185810  0.65637122  0.70914356    -0.04700
C3924       C  0.86974955  0.65481407  0.72167982    -0.01900
C3925       C  0.84684939  0.63108427  0.72365830     0.03100
C3926       C  0.84543601  0.60875376  0.71201084    -0.04700
C3927       C  0.86627074  0.61093941  0.69557287    -0.01800
C3928       C  0.88981556  0.63480014  0.69457454     0.03100
C3929       C  0.87036169  0.67772174  0.73271033     0.37800
C3930       C  0.86351381  0.58876262  0.68011946     0.37800
C3931       C  0.91196578  0.63695736  0.67953716     0.36200
C3932       C  0.82484543  0.63006004  0.73797609     0.36200
N3933       N  0.92968238  0.63872049  0.66751606    -0.38600
N3934       N  0.80812437  0.63057998  0.74970956    -0.38600
N3935       N  0.86107483  0.57111431  0.66739448    -0.38100
N3936       N  0.87002288  0.69551259  0.74152480    -0.38100
C3937       C  0.85580343  0.74914214  0.71496310    -0.04700
C3938       C  0.86406487  0.74431154  0.68790379    -0.01900
C3939       C  0.88846807  0.74616075  0.68561685     0.03100
C3940       C  0.90531157  0.75427351  0.70968461    -0.04700
C3941       C  0.89925171  0.76422829  0.73415966    -0.01800
C3942       C  0.87423854  0.76012286  0.73776548     0.03100
C3943       C  0.84708530  0.73568370  0.66286367     0.37800
C3944       C  0.91853523  0.77762757  0.75655511     0.37800
C3945       C  0.86734737  0.76513736  0.76620048     0.36200
C3946       C  0.89552325  0.73821788  0.65914801     0.36200
N3947       N  0.86197498  0.76813476  0.78941766    -0.38600
N3948       N  0.90123769  0.73198453  0.63798976    -0.38600
N3949       N  0.93374807  0.78858539  0.77442753    -0.38100
N3950       N  0.83374269  0.72899603  0.64269458    -0.38100
C3951       C  0.98498865  0.78537570  0.81698993    -0.04700
C3952       C  0.98471657  0.80859911  0.81446182    -0.01900
C3953       C  0.97170358  0.81517036  0.83557053     0.03100
C3954       C  0.95622191  0.79693857  0.85709057    -0.04700
C3955       C  0.95734701  0.77393264  0.85937265    -0.01800
C3956       C  0.97447783  0.77033207  0.84206542     0.03100
C3957       C  0.50272279  0.83147680  0.78731803     0.37800
C3958       C  0.93774374  0.75149443  0.87473255     0.37800
C3959       C  0.97734454  0.74804378  0.84675537     0.36200
C3960       C  0.97153619  0.83900215  0.83269205     0.36200
N3961       N  0.97956529  0.73029787  0.85061457    -0.38600
N3962       N  0.47890020  0.86630698  0.82841024    -0.38600
N3963       N  0.92142482  0.73260029  0.88475138    -0.38100
N3964       N  0.51370858  0.84479527  0.76788883    -0.38100
C3965       C  0.81250841  0.57730051  0.94664677    -0.04700
C3966       C  0.79739297  0.56914937  0.92112795    -0.01900
C3967       C  0.77509483  0.57094813  0.91884792     0.03100
C3968       C  0.76581484  0.57827532  0.94333390    -0.04700
C3969       C  0.77766532  0.58015551  0.97075073    -0.01800
C3970       C  0.80103458  0.57975460  0.97232190     0.03100
C3971       C  0.80512469  0.55960164  0.89648446     0.37800
C3972       C  0.76684280  0.58373693  0.99726007     0.37800
C3973       C  0.81308513  0.58188124  0.00027564     0.36200
C3974       C  0.76349490  0.56727127  0.89021256     0.36200
N3975       N  0.82249705  0.58333064  0.02268817    -0.38600
N3976       N  0.75534499  0.56530974  0.86695910    -0.38600
N3977       N  0.75824537  0.58645282  0.01854152    -0.38100
N3978       N  0.81078826  0.55203859  0.87641958    -0.38100
C3979       C  0.86198054  0.54162453  0.85065443    -0.04700
C3980       C  0.86740305  0.54638347  0.82079670    -0.01900
C3981       C  0.84693675  0.53719818  0.80049518     0.03100
C3982       C  0.82111173  0.52114986  0.80980363    -0.04700
C3983       C  0.81677919  0.51121299  0.83836713    -0.01800
C3984       C  0.83721343  0.52170517  0.85889682     0.03100
C3985       C  0.89399254  0.56069976  0.81122787     0.37800
C3986       C  0.79120413  0.49136109  0.84704900     0.37800
C3987       C  0.83270179  0.51274475  0.88868031     0.36200
C3988       C  0.84152431  0.02821594  0.77449878     0.36200
N3989       N  0.82911559  0.50515552  0.91233780    -0.38600
N3990       N  0.84420012  0.02897464  0.74953221    -0.38600
N3991       N  0.77097342  0.47508658  0.85408459    -0.38100
N3992       N  0.91523689  0.57171293  0.80352984    -0.38100
C3993       C  0.90515292  0.67943837  0.95579019    -0.04700
C3994       C  0.92562038  0.70243576  0.94422133    -0.01900
C3995       C  0.92646674  0.72583971  0.94938764     0.03100
C3996       C  0.90492329  0.72553029  0.96161879    -0.04700
C3997       C  0.88588039  0.70323471  0.97570019    -0.01800
C3998       C  0.88650645  0.68032754  0.97362399     0.03100
C3999       C  0.94459973  0.70189739  0.92537575     0.37800
C4000       C  0.86482733  0.70339393  0.99078930     0.37800
C4001       C  0.86671848  0.65735311  0.98800268     0.36200
C4002       C  0.94920105  0.75022280  0.94213403     0.36200
N4003       N  0.85091630  0.63933996  0.99993209    -0.38600
N4004       N  0.96747229  0.76973378  0.93680471    -0.38600
N4005       N  0.84795158  0.70319104  0.00303642    -0.38100
N4006       N  0.95939391  0.70156357  0.90960437    -0.38100
C4007       C  0.95515454  0.64522081  0.84738908    -0.04700
C4008       C  0.94273645  0.64132181  0.82014792    -0.01900
C4009       C  0.95556337  0.65803138  0.79699896     0.03100
C4010       C  0.97780901  0.68190666  0.80238838    -0.04700
C4011       C  0.99171205  0.68509100  0.82827644    -0.01800
C4012       C  0.98071726  0.66609370  0.85054073     0.03100
C4013       C  0.91538008  0.62300053  0.81682213     0.37800
C4014       C  0.51647382  0.71342619  0.84082789     0.37800
C4015       C  0.99465533  0.66922035  0.87729077     0.36200
C4016       C  0.94477724  0.65162468  0.76794622     0.36200
N4017       N  0.50438994  0.66969318  0.90059796    -0.38600
N4018       N  0.93634815  0.64586947  0.74474740    -0.38600
N4019       N  0.53447369  0.73251319  0.84788027    -0.38100
N4020       N  0.89335257  0.60965172  0.81410029    -0.38100
C4021       C  0.84916620  0.97445930  0.00865432    -0.04700
C4022       C  0.83579052  0.98715887  0.00103628    -0.01900
C4023       C  0.85022406  0.51217982  0.98523644     0.03100
C4024       C  0.87721782  0.52472655  0.98190335    -0.04700
C4025       C  0.89076720  0.51265271  0.99162797    -0.01800
C4026       C  0.87555167  0.98591138  0.00153693     0.03100
C4027       C  0.80790606  0.97384495  0.00187045     0.37800
C4028       C  0.91825519  0.52467303  0.98649545     0.37800
C4029       C  0.88910673  0.97230574  0.00791183     0.36200
C4030       C  0.83566350  0.52408417  0.97564234     0.36200
N4031       N  0.89986051  0.96138350  0.01304248    -0.38600
N4032       N  0.82317856  0.53266190  0.96836780    -0.38600
N4033       N  0.94014679  0.53411503  0.98209227    -0.38100
N4034       N  0.78574234  0.96415867  0.00046757    -0.38100
C4035       C  0.85214486  0.87699606  0.00321246    -0.04700
C4036       C  0.85731922  0.87965834  0.97285950    -0.01900
C4037       C  0.87104533  0.86893100  0.95992988     0.03100
C4038       C  0.87986243  0.85557150  0.97721159    -0.04700
C4039       C  0.87705219  0.85535978  0.00787418    -0.01800
C4040       C  0.86271690  0.86538085  0.02070379     0.03100
C4041       C  0.84835823  0.89327779  0.95469544     0.37800
C4042       C  0.88913828  0.84496520  0.02644231     0.37800
C4043       C  0.85744951  0.86207472  0.05170404     0.36200
C4044       C  0.87528868  0.87099315  0.92872939     0.36200
N4045       N  0.85312245  0.85926086  0.07638100    -0.38600
N4046       N  0.87882994  0.87280865  0.90388025    -0.38600
N4047       N  0.89889717  0.83681101  0.04124204    -0.38100
N4048       N  0.84117397  0.90404979  0.94011659    -0.38100
C4049       C  0.78385420  0.84025942  0.12872466    -0.04700
C4050       C  0.80117458  0.84400962  0.15171594    -0.01900
C4051       C  0.79341531  0.82590044  0.17509218     0.03100
C4052       C  0.76876032  0.80325030  0.17503473    -0.04700
C4053       C  0.75255006  0.79855710  0.15070725    -0.01800
C4054       C  0.75945625  0.81713589  0.12861120     0.03100
C4055       C  0.82590171  0.86767022  0.15295099     0.37800
C4056       C  0.72724767  0.77535405  0.14944300     0.37800
C4057       C  0.73975131  0.81292406  0.10743764     0.36200
C4058       C  0.80971745  0.83205972  0.20049229     0.36200
N4059       N  0.72297390  0.80905053  0.09200835    -0.38600
N4060       N  0.82280380  0.83753751  0.22079778    -0.38600
N4061       N  0.70674985  0.75744780  0.14819436    -0.38100
N4062       N  0.84563661  0.88660741  0.15405336    -0.38100
C4063       C  0.52411616  0.65153677  0.01419306    -0.04700
C4064       C  0.51859398  0.66628551  0.99425381    -0.01900
C4065       C  0.99443812  0.65590834  0.98381306     0.03100
C4066       C  0.97585255  0.63013995  0.98942350    -0.04700
C4067       C  0.98073241  0.61639801  0.01084110    -0.01800
C4068       C  0.50488803  0.62552065  0.01933058     0.03100
C4069       C  0.53790510  0.69246283  0.98637826     0.37800
C4070       C  0.96007102  0.59141633  0.02024141     0.37800
C4071       C  0.51011178  0.60930582  0.03807167     0.36200
C4072       C  0.98784569  0.67134315  0.96557409     0.36200
N4073       N  0.51422947  0.59622004  0.05281772    -0.38600
N4074       N  0.98268528  0.68408830  0.95168453    -0.38600
N4075       N  0.94347151  0.57186518  0.02859142    -0.38100
N4076       N  0.55327005  0.71307412  0.97920268    -0.38100
C4077       C  0.64563105  0.61844669  0.97983253    -0.04700
C4078       C  0.61876610  0.60463553  0.98542822    -0.01900
C4079       C  0.60722374  0.61620293  0.00147653     0.03100
C4080       C  0.62244481  0.64167166  0.01164233    -0.04700
C4081       C  0.64932733  0.65507726  0.00673070    -0.01800
C4082       C  0.66088159  0.64349715  0.99127546     0.03100
C4083       C  0.60314855  0.57828232  0.97553265     0.37800
C4084       C  0.66543956  0.68107161  0.01754432     0.37800
C4085       C  0.68861931  0.65785265  0.98694481     0.36200
C4086       C  0.57967322  0.60224467  0.00679882     0.36200
N4087       N  0.71076716  0.66969041  0.98407099    -0.38600
N4088       N  0.55768799  0.59113182  0.01111333    -0.38600
N4089       N  0.67878235  0.70183214  0.02575523    -0.38100
N4090       N  0.59068697  0.55720529  0.96774510    -0.38100
C4091       C  0.73440071  0.81038971  0.01096465    -0.04700
C4092       C  0.71383088  0.80130230  0.99116337    -0.01900
C4093       C  0.69184960  0.77677840  0.99550855     0.03100
C4094       C  0.69036158  0.76222178  0.02060646    -0.04700
C4095       C  0.71332930  0.76934895  0.03619068    -0.01800
C4096       C  0.73581455  0.79277908  0.02983201     0.03100
C4097       C  0.71444379  0.81772631  0.96779031     0.37800
C4098       C  0.71369796  0.75429636  0.06051601     0.37800
C4099       C  0.75989462  0.80009050  0.04465559     0.36200
C4100       C  0.67003292  0.76826259  0.97602715     0.36200
N4101       N  0.77916794  0.80590385  0.05624957    -0.38600
N4102       N  0.65268058  0.76148794  0.96041754    -0.38600
N4103       N  0.71490172  0.74333403  0.08053801    -0.38100
N4104       N  0.71488183  0.83051831  0.94875658    -0.38100
C4105       C  0.64956500  0.68118647  0.14025646    -0.04700
C4106       C  0.63962418  0.67469140  0.16871557    -0.01900
C4107       C  0.65674927  0.68234278  0.19255701     0.03100
C4108       C  0.68346992  0.69878098  0.18822339    -0.04700
C4109       C  0.69330738  0.70049725  0.15989041    -0.01800
C4110       C  0.67609057  0.69066185  0.13605222     0.03100
C4111       C  0.61207027  0.66206644  0.17368384     0.37800
C4112       C  0.72088144  0.71387228  0.15493134     0.37800
C4113       C  0.68520953  0.68962716  0.10730782     0.36200
C4114       C  0.64720430  0.67174992  0.22105765     0.36200
N4115       N  0.69223621  0.68781189  0.08450833    -0.38600
N4116       N  0.63910020  0.66173656  0.24317820    -0.38600
N4117       N  0.74290117  0.72466421  0.15087692    -0.38100
N4118       N  0.59009168  0.65214864  0.17773152    -0.38100
C4119       C  0.60519168  0.75316143  0.31409670    -0.04700
C4120       C  0.62646508  0.76627626  0.33270491    -0.01900
C4121       C  0.64776494  0.76266602  0.32976627     0.03100
C4122       C  0.64836187  0.74743658  0.30657467    -0.04700
C4123       C  0.62523502  0.73135255  0.29129056    -0.01800
C4124       C  0.60339939  0.73353137  0.29613552     0.03100
C4125       C  0.62691614  0.78427051  0.35383290     0.37800
C4126       C  0.62414627  0.71407049  0.26876493     0.37800
C4127       C  0.57956764  0.71682036  0.28093765     0.36200
C4128       C  0.66935469  0.77586833  0.34951881     0.36200
N4129       N  0.56070533  0.70328951  0.26865395    -0.38600
N4130       N  0.68622482  0.78608464  0.36582238    -0.38600
N4131       N  0.62270828  0.70051454  0.25018811    -0.38100
N4132       N  0.62745042  0.79853833  0.37097939    -0.38100
C4133       C  0.56913526  0.70316364  0.15245334    -0.04700
C4134       C  0.58644174  0.71690293  0.17524735    -0.01900
C4135       C  0.57910343  0.72733620  0.19806524     0.03100
C4136       C  0.55328608  0.72247310  0.20017072    -0.04700
C4137       C  0.53492902  0.70507440  0.17971212    -0.01800
C4138       C  0.54303730  0.69627138  0.15542076     0.03100
C4139       C  0.61267521  0.72151196  0.17470293     0.37800
C4140       C  0.01215453  0.70148770  0.18245748     0.37800
C4141       C  0.52486042  0.68153661  0.13263321     0.36200
C4142       C  0.59937623  0.74450100  0.21796465     0.36200
N4143       N  0.01380456  0.67186322  0.11593153    -0.38600
N4144       N  0.61605432  0.75867205  0.23289233    -0.38600
N4145       N  0.99070368  0.69579731  0.18403344    -0.38100
N4146       N  0.63367753  0.72564956  0.17441464    -0.38100
C4147       C  0.97238250  0.84283464  0.98900993    -0.04700
C4148       C  0.97862854  0.82769084  0.00714260    -0.01900
C4149       C  0.50333775  0.84026361  0.01857073     0.03100
C4150       C  0.52032505  0.86704226  0.01740521    -0.04700
C4151       C  0.51353428  0.88272507  0.00148705    -0.01800
C4152       C  0.98943607  0.86982613  0.98782255     0.03100
C4153       C  0.96157728  0.80001573  0.00893404     0.37800
C4154       C  0.53093424  0.91040425  0.00063851     0.37800
C4155       C  0.98267189  0.88611423  0.97130414     0.36200
C4156       C  0.50918195  0.82465460  0.03755808     0.36200
N4157       N  0.97732243  0.89912838  0.95812539    -0.38600
N4158       N  0.51367520  0.81245554  0.05333451    -0.38600
N4159       N  0.54475666  0.93246780  0.99990882    -0.38100
N4160       N  0.94806968  0.77793111  0.01043186    -0.38100
C4161       C  0.61639214  0.97031455  0.00979148    -0.04700
C4162       C  0.61407694  0.97045439  0.97905565    -0.01900
C4163       C  0.62689219  0.99378537  0.96331082     0.03100
C4164       C  0.64170639  0.51804892  0.97919489    -0.04700
C4165       C  0.63893186  0.51758340  0.00981116    -0.01800
C4166       C  0.62981256  0.99403940  0.02466666     0.03100
C4167       C  0.59845349  0.94652559  0.96336529     0.37800
C4168       C  0.64797357  0.54147558  0.02562952     0.37800
C4169       C  0.63259468  0.99460180  0.05605803     0.36200
C4170       C  0.62541086  0.99314513  0.93178023     0.36200
N4171       N  0.63489588  0.99516054  0.08107924    -0.38600
N4172       N  0.62404058  0.99247575  0.90665795    -0.38600
N4173       N  0.65491256  0.56044886  0.03831333    -0.38100
N4174       N  0.58603519  0.92745699  0.95086973    -0.38100
C4175       C  0.60661636  0.77580400  0.03793682    -0.04700
C4176       C  0.58317970  0.77524469  0.03298218    -0.01900
C4177       C  0.58308057  0.79860341  0.03035968     0.03100
C4178       C  0.60581356  0.82227410  0.03619676    -0.04700
C4179       C  0.62938161  0.82269045  0.03949205    -0.01800
C4180       C  0.62984837  0.79969468  0.03949035     0.03100
C4181       C  0.55899578  0.75096397  0.03353987     0.37800
C4182       C  0.65345196  0.84675914  0.04363707     0.37800
C4183       C  0.65446786  0.80082683  0.04226643     0.36200
C4184       C  0.55970396  0.79808102  0.02172299     0.36200
N4185       N  0.67430405  0.80231006  0.04478170    -0.38600
N4186       N  0.54108524  0.79723559  0.01363771    -0.38600
N4187       N  0.67293310  0.86544730  0.04756882    -0.38100
N4188       N  0.53951785  0.73177061  0.03473054    -0.38100
C4189       C  0.53743976  0.80920356  0.18862472    -0.04700
C4190       C  0.53261113  0.82980573  0.18762975    -0.01900
C4191       C  0.54201338  0.84749482  0.16400189     0.03100
C4192       C  0.55696530  0.84498203  0.14185554    -0.04700
C4193       C  0.55808223  0.82206594  0.14096675    -0.01800
C4194       C  0.54826577  0.80433872  0.16404611     0.03100
C4195       C  0.51872337  0.83338105  0.21105296     0.37800
C4196       C  0.56985368  0.81652930  0.11666089     0.37800
C4197       C  0.05098149  0.78206259  0.16295550     0.36200
C4198       C  0.53687519  0.86849409  0.16306452     0.36200
N4199       N  0.05127013  0.76321783  0.15953087    -0.38600
N4200       N  0.53235326  0.88500062  0.16210534    -0.38600
N4201       N  0.57918080  0.81129360  0.09797387    -0.38100
N4202       N  0.50756325  0.83679694  0.22926873    -0.38100
C4203       C  0.68615327  0.91889372  0.02261449    -0.04700
C4204       C  0.70865671  0.93284205  0.03974677    -0.01900
C4205       C  0.73036623  0.93045727  0.03456931     0.03100
C4206       C  0.72962060  0.91366545  0.01286552    -0.04700
C4207       C  0.70943381  0.90361444  0.99253789    -0.01800
C4208       C  0.68777375  0.90646251  0.99702384     0.03100
C4209       C  0.70932347  0.94827932  0.06417868     0.37800
C4210       C  0.71042269  0.88923406  0.96787533     0.37800
C4211       C  0.66643129  0.89425740  0.97672639     0.36200
C4212       C  0.75329702  0.94491443  0.05221666     0.36200
N4213       N  0.64947262  0.88442357  0.96044470    -0.38600
N4214       N  0.77167712  0.95742033  0.06584336    -0.38600
N4215       N  0.71124677  0.87805913  0.94788904    -0.38100
N4216       N  0.71080428  0.96047583  0.08422867    -0.38100
C4217       C  0.73820055  0.88995945  0.28112235    -0.04700
C4218       C  0.73638258  0.87707299  0.30755560    -0.01900
C4219       C  0.73849347  0.85475790  0.30756487     0.03100
C4220       C  0.74042659  0.84410778  0.28093259    -0.04700
C4221       C  0.74510574  0.85860158  0.25508161    -0.01800
C4222       C  0.74460227  0.88166007  0.25534612     0.03100
C4223       C  0.73021944  0.88531040  0.33443817     0.37800
C4224       C  0.74980570  0.84961814  0.22775702     0.37800
C4225       C  0.75016606  0.89641028  0.22860720     0.36200
C4226       C  0.73775310  0.84247091  0.33497495     0.36200
N4227       N  0.75466290  0.90765687  0.20693832    -0.38600
N4228       N  0.73777278  0.83315171  0.35698872    -0.38600
N4229       N  0.75324409  0.84269185  0.20566514    -0.38100
N4230       N  0.72511188  0.89163881  0.35594830    -0.38100
C4231       C  0.76476323  0.95938466  0.17359921    -0.04700
C4232       C  0.78999839  0.96341085  0.17205544    -0.01900
C4233       C  0.79716070  0.95263085  0.14878744     0.03100
C4234       C  0.77844434  0.93589870  0.12813364    -0.04700
C4235       C  0.75288189  0.93169670  0.13079988    -0.01800
C4236       C  0.74715316  0.94528489  0.15128190     0.03100
C4237       C  0.80682939  0.47451207  0.19950857     0.37800
C4238       C  0.73104518  0.91141896  0.11500089     0.37800
C4239       C  0.72175472  0.94275903  0.15079436     0.36200
C4240       C  0.82341867  0.95781662  0.14736313     0.36200
N4241       N  0.70135009  0.94017446  0.15033138    -0.38600
N4242       N  0.84044786  0.45261909  0.15542213    -0.38600
N4243       N  0.71341705  0.89507269  0.10301857    -0.38100
N4244       N  0.81975829  0.48258590  0.21992126    -0.38100
C4245       C  0.59635075  0.85242271  0.31545420    -0.04700
C4246       C  0.59775356  0.87003744  0.29453829    -0.01900
C4247       C  0.62183189  0.89121166  0.28725490     0.03100
C4248       C  0.64374480  0.89747137  0.30475796    -0.04700
C4249       C  0.63975272  0.88387632  0.33140455    -0.01800
C4250       C  0.61596612  0.86095357  0.33642666     0.03100
C4251       C  0.57488219  0.86424720  0.27802682     0.37800
C4252       C  0.66033274  0.89183193  0.35246193     0.37800
C4253       C  0.61178663  0.84586916  0.36251314     0.36200
C4254       C  0.62394501  0.90373800  0.25965577     0.36200
N4255       N  0.60816017  0.83414921  0.38371959    -0.38600
N4256       N  0.62485412  0.91207789  0.23674214    -0.38600
N4257       N  0.67661181  0.89816768  0.36949449    -0.38100
N4258       N  0.55662240  0.85983730  0.26506141    -0.38100
C4259       C  0.68061658  0.97811656  0.18979333    -0.04700
C4260       C  0.65399300  0.96659809  0.19503772    -0.01900
C4261       C  0.63634567  0.95521468  0.17186521     0.03100
C4262       C  0.64567958  0.95797085  0.14313364    -0.04700
C4263       C  0.67189572  0.97595930  0.13775104    -0.01800
C4264       C  0.68963282  0.98546317  0.16107945     0.03100
C4265       C  0.64514799  0.96659802  0.22428640     0.37800
C4266       C  0.68034015  0.98437391  0.10824174     0.37800
C4267       C  0.72083673  0.50507809  0.15630049     0.36200
C4268       C  0.60908159  0.93925702  0.17789489     0.36200
N4269       N  0.74287896  0.51742027  0.15262224    -0.38600
N4270       N  0.58733559  0.92653473  0.18306871    -0.38600
N4271       N  0.69137255  0.50167882  0.08557783    -0.38100
N4272       N  0.63808570  0.96708408  0.24753173    -0.38100
C4273       C  0.81852914  0.85597228  0.64739172    -0.04700
C4274       C  0.83297197  0.84403153  0.65414736    -0.01900
C4275       C  0.82142254  0.82030134  0.66912343     0.03100
C4276       C  0.79551191  0.80860320  0.67863832    -0.04700
C4277       C  0.78112986  0.82066150  0.67200664    -0.01800
C4278       C  0.79257351  0.84420142  0.65648683     0.03100
C4279       C  0.85986427  0.85605106  0.64560976     0.37800
C4280       C  0.75419396  0.80847485  0.68004064     0.37800
C4281       C  0.77792536  0.85689267  0.65103507     0.36200
C4282       C  0.83651813  0.80812005  0.67482829     0.36200
N4283       N  0.76631325  0.86709873  0.64681932    -0.38600
N4284       N  0.84866360  0.79846684  0.67894620    -0.38600
N4285       N  0.73262348  0.79904626  0.68607539    -0.38100
N4286       N  0.88132726  0.86551483  0.63898023    -0.38100
C4287       C  0.81907118  0.95826064  0.65020878    -0.04700
C4288       C  0.81236176  0.97483731  0.63600811    -0.01900
C4289       C  0.80248906  0.98801881  0.65194307     0.03100
C4290       C  0.79747137  0.98355501  0.68228565    -0.04700
C4291       C  0.80391100  0.96655362  0.69636650    -0.01800
C4292       C  0.81454157  0.95402727  0.68044710     0.03100
C4293       C  0.81523590  0.97822211  0.60471304     0.37800
C4294       C  0.80066347  0.96252757  0.72756708     0.37800
C4295       C  0.81966027  0.93568835  0.69502423     0.36200
C4296       C  0.79783995  0.00635419  0.63663577     0.36200
N4297       N  0.82359487  0.92089185  0.70647484    -0.38600
N4298       N  0.78995150  0.51633933  0.61983223    -0.38600
N4299       N  0.79821905  0.95924882  0.75244095    -0.38100
N4300       N  0.81681992  0.98063119  0.57971008    -0.38100
C4301       C  0.85898113  0.81538409  0.34517356    -0.04700
C4302       C  0.83536333  0.80167162  0.36044328    -0.01900
C4303       C  0.81177230  0.78855808  0.34525749     0.03100
C4304       C  0.81112493  0.78955957  0.31442044    -0.04700
C4305       C  0.83465426  0.80234014  0.29907658    -0.01800
C4306       C  0.85828894  0.81620760  0.31424026     0.03100
C4307       C  0.83489499  0.80222995  0.39203498     0.37800
C4308       C  0.83481351  0.80077041  0.26760308     0.37800
C4309       C  0.88150847  0.83216012  0.29755707     0.32600
C4310       C  0.78820250  0.77296761  0.36166676     0.36200
N4311       N  0.89960306  0.84543649  0.28381519    -0.38600
N4312       N  0.76953479  0.76044976  0.37490053    -0.38600
N4313       N  0.83509369  0.79886589  0.24260179    -0.38100
N4314       N  0.83442086  0.80276121  0.41716553    -0.38100
C4315       C  0.97995276  0.78298079  0.32373559    -0.04700
C4316       C  0.96631162  0.79171341  0.30681303    -0.01900
C4317       C  0.95474370  0.80447500  0.32023604     0.03100
C4318       C  0.95577754  0.80774795  0.35084786    -0.04700
C4319       C  0.96698619  0.79645244  0.36795230    -0.01800
C4320       C  0.97924905  0.78450715  0.35454639     0.03100
C4321       C  0.96452190  0.78812031  0.27554745     0.37800
C4322       C  0.96683469  0.79770815  0.39949708     0.37800
C4323       C  0.48772212  0.77189865  0.37047886     0.36200
C4324       C  0.94149130  0.81390617  0.30229719     0.36200
N4325       N  0.49666447  0.76309931  0.38557530    -0.38600
N4326       N  0.93106691  0.82134798  0.28757517    -0.38600
N4327       N  0.46393373  0.79683685  0.42193555    -0.38100
N4328       N  0.96267927  0.78495326  0.25064159    -0.38100
C4329       C  0.85178005  0.87452123  0.51288357    -0.04700
C4330       C  0.85161631  0.87761133  0.48247612    -0.01900
C4331       C  0.86131297  0.86583142  0.46383987     0.03100
C4332       C  0.87275685  0.85237425  0.47563503    -0.04700
C4333       C  0.86855294  0.84538835  0.50524771    -0.01800
C4334       C  0.85763521  0.85612942  0.52378627     0.03100
C4335       C  0.84307664  0.89419908  0.47043238     0.37800
C4336       C  0.87628034  0.82802185  0.51683652     0.37800
C4337       C  0.85418982  0.84974447  0.55443743     0.36200
C4338       C  0.86129066  0.86903604  0.43255502     0.36200
N4339       N  0.85110422  0.84432690  0.57883155    -0.38600
N4340       N  0.86130962  0.87150462  0.40758952    -0.38600
N4341       N  0.88178867  0.81369640  0.52638619    -0.38100
N4342       N  0.83629421  0.90732205  0.46026906    -0.38100
C4343       C  0.68594095  0.64084172  0.34816360    -0.04700
C4344       C  0.71289997  0.65823450  0.35131943    -0.01900
C4345       C  0.72526283  0.68151231  0.33528351     0.03100
C4346       C  0.71058472  0.68885566  0.31832642    -0.04700
C4347       C  0.68367189  0.67265054  0.31694678    -0.01800
C4348       C  0.67174865  0.64791663  0.32944181     0.03100
C4349       C  0.72823610  0.65237967  0.37073713     0.37800
C4350       C  0.66801569  0.68227235  0.30459563     0.37800
C4351       C  0.64517471  0.62981903  0.32181154     0.36200
C4352       C  0.75299092  0.69839902  0.33700142     0.36200
N4353       N  0.62437354  0.61518637  0.31446909    -0.38600
N4354       N  0.77512736  0.71184241  0.33823166    -0.38600
N4355       N  0.65568712  0.69058539  0.29593405    -0.38100
N4356       N  0.74053374  0.64808543  0.38659789    -0.38100
C4357       C  0.68850206  0.54062038  0.35159464    -0.04700
C4358       C  0.67383020  0.51475364  0.34219605    -0.01900
C4359       C  0.68551838  0.50353328  0.32634245     0.03100
C4360       C  0.71217174  0.51762827  0.32029511    -0.04700
C4361       C  0.72712571  0.54307844  0.33057538    -0.01800
C4362       C  0.71530355  0.55468127  0.34589256     0.03100
C4363       C  0.64479917  0.00140759  0.34392047     0.37800
C4364       C  0.75480426  0.55700634  0.32663462     0.37800
C4365       C  0.73073891  0.58124284  0.35511146     0.36200
C4366       C  0.66738648  0.97734399  0.31358214     0.36200
N4367       N  0.74325871  0.60245247  0.36238763    -0.38600
N4368       N  0.65398749  0.95636981  0.30600123    -0.38600
N4369       N  0.77698451  0.56843655  0.32415287    -0.38100
N4370       N  0.62273854  0.98976144  0.34763962    -0.38100
C4371       C  0.52056351  0.93394469  0.38545018    -0.04700
C4372       C  0.52890830  0.94944778  0.36003147    -0.01900
C4373       C  0.55263963  0.97312761  0.35998668     0.03100
C4374       C  0.56913810  0.98061802  0.38462500    -0.04700
C4375       C  0.56267286  0.96281293  0.40766448    -0.01800
C4376       C  0.53813866  0.94053892  0.40890647     0.03100
C4377       C  0.51221000  0.94247421  0.33476819     0.37800
C4378       C  0.58033874  0.96823352  0.43171212     0.37800
C4379       C  0.53040912  0.92630975  0.43606253     0.36200
C4380       C  0.55843753  0.99068121  0.33572969     0.36200
N4381       N  0.52433820  0.91629706  0.45849058    -0.38600
N4382       N  0.58123136  0.48893883  0.31041259    -0.38600
N4383       N  0.59374901  0.97227380  0.45146014    -0.38100
N4384       N  0.00036652  0.93226612  0.31240137    -0.38100
C4385       C  0.54417090  0.85557164  0.64309602    -0.04700
C4386       C  0.55875546  0.84358881  0.64899253    -0.01900
C4387       C  0.54778735  0.82039181  0.66503184     0.03100
C4388       C  0.52224723  0.80906032  0.67530623    -0.04700
C4389       C  0.50780496  0.82114306  0.66985614    -0.01800
C4390       C  0.51868435  0.84431887  0.65394596     0.03100
C4391       C  0.58556531  0.85583337  0.64007460     0.37800
C4392       C  0.48197208  0.81035783  0.68161771     0.37800
C4393       C  0.50354410  0.85658623  0.64912467     0.36200
C4394       C  0.56276079  0.80818041  0.67110077     0.36200
N4395       N  0.49137185  0.86632265  0.64567118    -0.38600
N4396       N  0.07555924  0.79865148  0.67614933    -0.38600
N4397       N  0.46147046  0.80239866  0.69096527    -0.38100
N4398       N  0.60697360  0.86569289  0.63313814    -0.38100
C4399       C  0.64602515  0.95374808  0.64757591    -0.04700
C4400       C  0.67023185  0.96612508  0.63339236    -0.01900
C4401       C  0.69333903  0.97647320  0.64966033     0.03100
C4402       C  0.69281128  0.97585756  0.68058965    -0.04700
C4403       C  0.66849020  0.96287135  0.69467460    -0.01800
C4404       C  0.64539686  0.95130714  0.67826936     0.03100
C4405       C  0.67165552  0.96911413  0.60197232     0.37800
C4406       C  0.66686517  0.96212816  0.72618210     0.37800
C4407       C  0.62090805  0.93615706  0.69314683     0.36200
C4408       C  0.71761995  0.98734756  0.63409914     0.36200
N4409       N  0.60138831  0.92391529  0.70496471    -0.38600
N4410       N  0.73680088  0.99591424  0.62134331    -0.38600
N4411       N  0.66633332  0.45973827  0.75676039    -0.38100
N4412       N  0.67300151  0.97161472  0.57695587    -0.38100
C4413       C  0.98366168  0.91537734  0.60648157    -0.04700
C4414       C  0.96746414  0.90703455  0.58154538    -0.01900
C4415       C  0.94396263  0.90679365  0.58148191     0.03100
C4416       C  0.93608488  0.91495282  0.60627172    -0.04700
C4417       C  0.94961283  0.91828287  0.63271837    -0.01800
C4418       C  0.97354846  0.91902743  0.63272683     0.03100
C4419       C  0.97541214  0.90032114  0.55475854     0.37800
C4420       C  0.93947137  0.92156158  0.65994815     0.37800
C4421       C  0.49182907  0.92931333  0.65679175     0.36200
C4422       C  0.92864225  0.89914319  0.55501360     0.36200
N4423       N  0.50356559  0.93443746  0.67817538    -0.38600
N4424       N  0.91713311  0.89352860  0.53347574    -0.38600
N4425       N  0.93122425  0.92376868  0.68177231    -0.38100
N4426       N  0.98148879  0.89571292  0.53278489    -0.38100
C4427       C  0.63704245  0.98252348  0.51944306    -0.04700
C4428       C  0.64558581  0.50831354  0.53544391    -0.01900
C4429       C  0.65455823  0.52880156  0.51525541     0.03100
C4430       C  0.65377409  0.52383087  0.48519494    -0.04700
C4431       C  0.65148229  0.00105033  0.47106613    -0.01800
C4432       C  0.64123589  0.97951476  0.48998042     0.03100
C4433       C  0.64606355  0.51307231  0.56640426     0.37800
C4434       C  0.65348582  0.99776908  0.44013897     0.37800
C4435       C  0.63346462  0.95417160  0.47891291     0.36200
C4436       C  0.66278892  0.55458172  0.52525938     0.36200
N4437       N  0.62777008  0.93402661  0.47004659    -0.38600
N4438       N  0.66928624  0.57506893  0.53361574    -0.38600
N4439       N  0.65501905  0.99517303  0.41544057    -0.38100
N4440       N  0.64647520  0.51671676  0.59115143    -0.38100
C4441       C  0.52503233  0.87357379  0.51314157    -0.04700
C4442       C  0.99946638  0.85667492  0.52598998    -0.01900
C4443       C  0.97735326  0.84481880  0.50795370     0.03100
C4444       C  0.97999581  0.84842454  0.47759905    -0.04700
C4445       C  0.50607128  0.85898088  0.46482756    -0.01800
C4446       C  0.52808076  0.87162285  0.48303140     0.03100
C4447       C  0.99676986  0.85422185  0.55733293     0.37800
C4448       C  0.50916515  0.85897489  0.43354656     0.37800
C4449       C  0.55362889  0.88441969  0.47046076     0.36200
C4450       C  0.95198098  0.83078702  0.52082985     0.36200
N4451       N  0.57389874  0.89445243  0.45998567    -0.38600
N4452       N  0.93195714  0.81940723  0.53175755    -0.38600
N4453       N  0.51174816  0.85898473  0.40861428    -0.38100
N4454       N  0.99471526  0.85222162  0.58234392    -0.38100
C4455       C  0.64763829  0.68648339  0.64772824    -0.04700
C4456       C  0.65528740  0.70866315  0.66459873    -0.01900
C4457       C  0.67781838  0.71888787  0.68193028     0.03100
C4458       C  0.69351045  0.70746561  0.68165206    -0.04700
C4459       C  0.68516475  0.68467941  0.66522758    -0.01800
C4460       C  0.66234924  0.67426095  0.64867269     0.03100
C4461       C  0.63914257  0.72015221  0.66518642     0.37800
C4462       C  0.69886796  0.67061080  0.66687082     0.37800
C4463       C  0.65318383  0.64991113  0.63391161     0.36200
C4464       C  0.68385603  0.74038189  0.70091347     0.36200
N4465       N  0.64605669  0.63035544  0.62254942    -0.38600
N4466       N  0.68798246  0.75708315  0.71652033    -0.38600
N4467       N  0.70959641  0.65923020  0.66815353    -0.38100
N4468       N  0.62614199  0.72917099  0.66559546    -0.38100
C4469       C  0.54007528  0.67631752  0.65347130    -0.04700
C4470       C  0.54401462  0.68287356  0.68327994    -0.01900
C4471       C  0.53307281  0.69644236  0.69608530     0.03100
C4472       C  0.51828536  0.70395619  0.67914803    -0.04700
C4473       C  0.51433481  0.69730767  0.64928675    -0.01800
C4474       C  0.52484910  0.68329049  0.63667319     0.03100
C4475       C  0.55986981  0.67618561  0.70077447     0.37800
C4476       C  0.00389500  0.70918265  0.62944376     0.37800
C4477       C  0.51913652  0.67527435  0.60651454     0.36200
C4478       C  0.53661982  0.70193213  0.72699429     0.36200
N4479       N  0.51430926  0.66882238  0.58252933    -0.38600
N4480       N  0.53973054  0.70607831  0.75166999    -0.38600
N4481       N  0.99456830  0.71762311  0.61439111    -0.38100
N4482       N  0.57248435  0.67081413  0.71473010    -0.38100
C4483       C  0.94166075  0.51324977  0.61679000    -0.04700
C4484       C  0.95698324  0.51738511  0.64195176    -0.01900
C4485       C  0.98081992  0.54059460  0.64499524     0.03100
C4486       C  0.98856368  0.56010553  0.62374294    -0.04700
C4487       C  0.97055290  0.55798158  0.60286168    -0.01800
C4488       C  0.94862351  0.53400356  0.59742417     0.03100
C4489       C  0.95193804  0.99974255  0.66096235     0.37800
C4490       C  0.97428034  0.58074988  0.58770969     0.37800
C4491       C  0.93517981  0.53045022  0.57027717     0.36200
C4492       C  0.50406382  0.53371849  0.65978061     0.36200
N4493       N  0.92554125  0.52769280  0.54781539    -0.38600
N4494       N  0.51938261  0.53215234  0.67339617    -0.38600
N4495       N  0.97670383  0.59903916  0.57646261    -0.38100
N4496       N  0.94654845  0.98411618  0.67862466    -0.38100
C4497       C  0.58640027  0.51615865  0.62188460    -0.04700
C4498       C  0.58216288  0.52375752  0.64973938    -0.01900
C4499       C  0.58642076  0.54894274  0.65384965     0.03100
C4500       C  0.59585633  0.56670155  0.63076189    -0.04700
C4501       C  0.60588006  0.56095952  0.60609714    -0.01800
C4502       C  0.59885580  0.53542799  0.60021742     0.03100
C4503       C  0.57121525  0.50539770  0.67342264     0.37800
C4504       C  0.62078354  0.58083403  0.58479658     0.37800
C4505       C  0.60375671  0.02966454  0.56131607     0.36200
C4506       C  0.57988525  0.55621745  0.68112725     0.36200
N4507       N  0.60701268  0.02459297  0.53805898    -0.38600
N4508       N  0.57487109  0.56217057  0.70295661    -0.38600
N4509       N  0.63291500  0.59620178  0.56748828    -0.38100
N4510       N  0.56252572  0.49087625  0.69246555    -0.38100
C4511       C  0.64226559  0.62300826  0.47567724    -0.04700
C4512       C  0.62292432  0.62912188  0.46950561    -0.01900
C4513       C  0.61420969  0.63923397  0.49125992     0.03100
C4514       C  0.62506060  0.64356887  0.51918747    -0.04700
C4515       C  0.64817608  0.64331164  0.52318057    -0.01800
C4516       C  0.65672757  0.63269954  0.50147977     0.03100
C4517       C  0.61070758  0.62335558  0.44132808     0.37800
C4518       C  0.66303277  0.65412994  0.54942210     0.37800
C4519       C  0.67940034  0.63068308  0.50635699     0.36200
C4520       C  0.59249564  0.64286684  0.48568571     0.36200
N4521       N  0.69775281  0.62946711  0.51021734    -0.38600
N4522       N  0.57524915  0.64580462  0.48109955    -0.38600
N4523       N  0.67544571  0.66340633  0.56994734    -0.38100
N4524       N  0.60070813  0.61869050  0.41892217    -0.38100
C4525       C  0.96002547  0.63670554  0.34655751    -0.04700
C4526       C  0.97479258  0.64163283  0.32067248    -0.01900
C4527       C  0.98582325  0.66585447  0.30681208     0.03100
C4528       C  0.98375123  0.68606192  0.31936452    -0.04700
C4529       C  0.96781808  0.68087896  0.34396532    -0.01800
C4530       C  0.95591444  0.65641912  0.35740376     0.03100
C4531       C  0.97947843  0.62225116  0.30823877     0.37800
C4532       C  0.96205772  0.70013343  0.35429815     0.37800
C4533       C  0.93884014  0.65168871  0.38193540     0.36200
C4534       C  0.99890358  0.66961581  0.27917711     0.36200
N4535       N  0.92529114  0.64803898  0.40147375    -0.38600
N4536       N  0.50690908  0.67143266  0.25649160    -0.38600
N4537       N  0.95671803  0.71496541  0.36253230    -0.38100
N4538       N  0.98326176  0.60688682  0.29813686    -0.38100
C4539       C  0.81217239  0.51332666  0.30855471    -0.04700
C4540       C  0.82710939  0.54043268  0.31107140    -0.01900
C4541       C  0.84961443  0.55189314  0.32836188     0.03100
C4542       C  0.85810273  0.53639497  0.34172458    -0.04700
C4543       C  0.84398679  0.50938770  0.33761737    -0.01800
C4544       C  0.82115420  0.49794170  0.32123849     0.03100
C4545       C  0.81978675  0.55664273  0.29541089     0.37800
C4546       C  0.85272097  0.49305018  0.35041264     0.37800
C4547       C  0.80737973  0.47024559  0.31667155     0.36200
C4548       C  0.86437653  0.57964599  0.33172826     0.36200
N4549       N  0.79659223  0.44819245  0.31311838    -0.38600
N4550       N  0.87609769  0.60177923  0.33457000    -0.38600
N4551       N  0.85951089  0.47980373  0.36026274    -0.38100
N4552       N  0.81441779  0.56967395  0.28232234    -0.38100
C4553       C  0.92181959  0.93325822  0.38160446    -0.04700
C4554       C  0.92673576  0.94690351  0.35490678    -0.01900
C4555       C  0.92326962  0.96844018  0.35288025     0.03100
C4556       C  0.91351770  0.97552685  0.37700047    -0.04700
C4557       C  0.90318310  0.95821197  0.40055556    -0.01800
C4558       C  0.90982690  0.93927137  0.40444757     0.03100
C4559       C  0.93766688  0.94064829  0.33033465     0.37800
C4560       C  0.88713965  0.96084795  0.42222469     0.37800
C4561       C  0.90699947  0.92880321  0.43357161     0.36200
C4562       C  0.93086412  0.98370776  0.32642760     0.36200
N4563       N  0.90585113  0.92186717  0.45729472    -0.38600
N4564       N  0.93694675  0.99576782  0.30523362    -0.38600
N4565       N  0.87117146  0.45931688  0.43911956    -0.38100
N4566       N  0.94635109  0.93577081  0.31061550    -0.38100
C4567       C  0.51411330  0.61884712  0.52648741    -0.04700
C4568       C  0.49466947  0.59230759  0.52519813    -0.01900
C4569       C  0.97959243  0.58418455  0.49994092     0.03100
C4570       C  0.97561576  0.60120749  0.48256867    -0.04700
C4571       C  0.49215181  0.62675380  0.48589449    -0.01800
C4572       C  0.51171010  0.63624330  0.50771577     0.03100
C4573       C  0.00589017  0.57467814  0.53195394     0.37800
C4574       C  0.49261043  0.64370488  0.46325035     0.37800
C4575       C  0.53065279  0.66343852  0.50894735     0.36200
C4576       C  0.96353432  0.55642761  0.49588928     0.36200
N4577       N  0.54574816  0.68519928  0.51007753    -0.38600
N4578       N  0.95147708  0.53439802  0.49229659    -0.38600
N4579       N  0.49307426  0.65714591  0.44495645    -0.38100
N4580       N  0.00951323  0.55874972  0.54065627    -0.38100
C4581       C  0.87200281  0.51829847  0.47684665    -0.04700
C4582       C  0.87772291  0.52522630  0.50630891    -0.01900
C4583       C  0.86835287  0.00779233  0.52908998     0.03100
C4584       C  0.85307169  0.98169974  0.52101808    -0.04700
C4585       C  0.84256276  0.97599465  0.49278051    -0.01800
C4586       C  0.85246765  0.99549464  0.47115676     0.03100
C4587       C  0.89479075  0.55197969  0.51393521     0.37800
C4588       C  0.82217741  0.95014571  0.48601069     0.37800
C4589       C  0.84248122  0.98975958  0.44180645     0.36200
C4590       C  0.87247369  0.51275239  0.55850350     0.36200
N4591       N  0.83420240  0.98513178  0.41845999    -0.38600
N4592       N  0.87631624  0.51820166  0.58285827    -0.38600
N4593       N  0.80540748  0.92962671  0.48086534    -0.38100
N4594       N  0.90825907  0.57341508  0.51988672    -0.38100
C4595       C  0.50817887  0.55724647  0.37546384    -0.04700
C4596       C  0.50965772  0.53498652  0.38135740    -0.01900
C4597       C  0.53364443  0.53646715  0.38259286     0.03100
C4598       C  0.55664291  0.56009181  0.37745503    -0.04700
C4599       C  0.55499946  0.58161484  0.36810641    -0.01800
C4600       C  0.53080185  0.58027388  0.36745904     0.03100
C4601       C  0.48656130  0.51037717  0.38731524     0.37800
C4602       C  0.57799736  0.60573679  0.36108890     0.37800
C4603       C  0.52953193  0.60309768  0.36052095     0.36200
C4604       C  0.53431207  0.51339631  0.39010188     0.36200
N4605       N  0.52858881  0.62135361  0.35503937    -0.38600
N4606       N  0.53378236  0.49458386  0.39654076    -0.38600
N4607       N  0.59579935  0.62563372  0.35592331    -0.38100
N4608       N  0.97004178  0.49178920  0.38828454    -0.38100
loop_ 
_geom_bond_atom_site_label_1 
_geom_bond_atom_site_label_2 
_geom_bond_distance 
_geom_bond_site_symmetry_2 
_ccdc_geom_bond_type 
Fe1          O17   2.054       .  S
Fe1           O7   2.010       .  S
Fe1          O14   2.018       .  S
Fe1           O6   2.082       .  S
Fe1          O12   1.901       .  S
Fe2           O5   2.073       .  S
Fe2           O9   2.078       .  S
Fe2          O13   2.106       .  S
Fe2          O18   2.024       .  S
Fe2          O12   1.943       .  S
Fe3          O21   2.067       .  S
Fe3           O8   2.119       .  S
Fe3          O15   2.163       .  S
Fe3           O4   2.085       .  S
Fe3          O12   1.944       .  S
O4           C11   1.267       .  A
O5           C19   1.272       .  A
O6           C11   1.267       .  A
O7           C10   1.260       .  A
O8           C20   1.283       .  A
O9           C22   1.267       .  A
C10          O15   1.287       .  A
C10        C1114   1.498       .  S
C11        C1125   1.491       .  S
O13          C16   1.278       .  A
O14          C16   1.265       .  A
C16        C2252   1.498   1_545  S
O17          C22   1.266       .  A
O18          C20   1.265       .  A
C19          O21   1.273       .  A
C19        C1069   1.509       .  S
C20        C1086   1.487       .  S
C22        C3443   1.494       .  S
Fe23         O39   2.092       .  S
Fe23         O29   2.044       .  S
Fe23         O36   2.074       .  S
Fe23         O28   2.067       .  S
Fe23         O34   1.959       .  S
Fe24         O27   2.055       .  S
Fe24         O31   2.026       .  S
Fe24         O35   2.066       .  S
Fe24         O40   2.053       .  S
Fe24         O34   1.928       .  S
Fe25         O43   2.118       .  S
Fe25         O30   2.125       .  S
Fe25         O37   2.096       .  S
Fe25         O26   2.070       .  S
Fe25         O34   1.954       .  S
O26          C33   1.269       .  A
O27          C41   1.270       .  A
O28          C33   1.269       .  A
O29          C32   1.269       .  A
O30          C42   1.273       .  A
O31          C44   1.258       .  A
C32          O37   1.281       .  A
C32         C999   1.477       .  S
C33        C1013   1.487       .  S
O35          C38   1.277       .  A
O36          C38   1.273       .  A
C38        C3334   1.486   1_455  S
O39          C44   1.268       .  A
O40          C42   1.256       .  A
C41          O43   1.280       .  A
C41        C1058   1.487       .  S
C42        C1111   1.512       .  S
C44        C1044   1.482       .  S
Fe45         O61   2.056       .  S
Fe45         O51   2.041       .  S
Fe45         O58   2.032       .  S
Fe45         O50   2.067       .  S
Fe45         O56   1.964       .  S
Fe46         O49   2.073       .  S
Fe46         O53   2.059       .  S
Fe46         O57   2.097       .  S
Fe46         O62   2.036       .  S
Fe46         O56   1.981       .  S
Fe47         O65   2.081       .  S
Fe47         O52   2.076       .  S
Fe47         O59   2.105       .  S
Fe47         O48   2.097       .  S
Fe47         O56   1.987       .  S
O48          C55   1.272       .  A
O49          C63   1.272       .  A
O50          C55   1.267       .  A
O51          C54   1.265       .  A
O52          C64   1.271       .  A
O53          C66   1.264       .  A
C54          O59   1.274       .  A
C54         C971   1.489       .  S
C55         C985   1.495       .  S
O57          C60   1.274       .  A
O58          C60   1.264       .  A
C60        C3261   1.505   1_455  S
O61          C66   1.267       .  A
O62          C64   1.264       .  A
C63          O65   1.274       .  A
C63         C943   1.501       .  S
C64         C929   1.485       .  S
C66        C2193   1.497       .  S
Fe67         O83   2.079       .  S
Fe67         O73   2.060       .  S
Fe67         O80   2.089       .  S
Fe67         O72   2.042       .  S
Fe67         O78   1.986       .  S
Fe68         O71   2.032       .  S
Fe68         O75   2.055       .  S
Fe68         O79   2.036       .  S
Fe68         O84   2.059       .  S
Fe68         O78   1.961       .  S
Fe69         O87   2.109       .  S
Fe69         O74   2.089       .  S
Fe69         O81   2.064       .  S
Fe69         O70   2.085       .  S
Fe69         O78   1.989       .  S
O70          C77   1.273       .  A
O71          C85   1.264       .  A
O72          C77   1.265       .  A
O73          C76   1.270       .  A
O74          C86   1.269       .  A
O75          C88   1.267       .  A
C76          O81   1.270       .  A
C76         C887   1.500       .  S
C77         C901   1.493       .  S
O79          C82   1.266       .  A
O80          C82   1.273       .  A
C82        C2070   1.502   1_545  S
O83          C88   1.267       .  A
O84          C86   1.265       .  A
C85          O87   1.276       .  A
C85        C1055   1.490       .  S
C86         C974   1.488       .  S
C88        C1142   1.487       .  S
Fe89        O105   2.082       .  S
Fe89         O95   2.059       .  S
Fe89        O102   2.072       .  S
Fe89         O94   2.059       .  S
Fe89        O100   1.980       .  S
Fe90         O93   2.044       .  S
Fe90         O97   2.030       .  S
Fe90        O101   2.029       .  S
Fe90        O106   2.046       .  S
Fe90        O100   1.963       .  S
Fe91        O109   2.120       .  S
Fe91         O96   2.109       .  S
Fe91        O103   2.068       .  S
Fe91         O92   2.085       .  S
Fe91        O100   1.978       .  S
O92          C99   1.277       .  A
O93         C107   1.268       .  A
O94          C99   1.270       .  A
O95          C98   1.266       .  A
O96         C108   1.272       .  A
O97         C110   1.260       .  A
C98         O103   1.270       .  A
C98         C862   1.493       .  S
C99         C845   1.508       .  S
O101        C104   1.265       .  A
O102        C104   1.269       .  A
C104       C1097   1.493       .  S
O105        C110   1.269       .  A
O106        C108   1.260       .  A
C107        O109   1.279       .  A
C107        C988   1.494       .  S
C108        C876   1.495       .  S
C110       C3219   1.495       .  S
Fe111       O127   2.059       .  S
Fe111       O117   2.070       .  S
Fe111       O124   2.079       .  S
Fe111       O116   2.046       .  S
Fe111       O122   1.974       .  S
Fe112       O115   2.056       .  S
Fe112       O119   2.072       .  S
Fe112       O123   2.059       .  S
Fe112       O128   2.072       .  S
Fe112       O122   1.966       .  S
Fe113       O131   2.100       .  S
Fe113       O118   2.111       .  S
Fe113       O125   2.101       .  S
Fe113       O114   2.081       .  S
Fe113       O122   1.988       .  S
O114        C121   1.269       .  A
O115        C129   1.266       .  A
O116        C121   1.261       .  A
O117        C120   1.275       .  A
O118        C130   1.277       .  A
O119        C132   1.268       .  A
C120        O125   1.280       .  A
C120        C831   1.506       .  S
C121        C817   1.488       .  S
O123        C126   1.269       .  A
O124        C126   1.272       .  A
C126        C960   1.501       .  S
O127        C132   1.266       .  A
O128        C130   1.271       .  A
C129        O131   1.271       .  A
C129       C1128   1.491       .  S
C130        C873   1.502       .  S
C132       C2179   1.493       .  S
Fe133       O149   2.067       .  S
Fe133       O139   2.031       .  S
Fe133       O146   2.066       .  S
Fe133       O138   2.044       .  S
Fe133       O144   1.977       .  S
Fe134       O137   2.034       .  S
Fe134       O141   2.062       .  S
Fe134       O145   2.047       .  S
Fe134       O150   2.060       .  S
Fe134       O144   1.955       .  S
Fe135       O147   2.073   1_565  S
Fe135       O136   2.093   1_565  S
Fe135      O1305   2.104       .  S
Fe135      O1292   2.085       .  S
Fe135      O1296   1.995       .  S
O136        C143   1.278       .  A
O137        C151   1.267       .  A
O138       C1295   1.272       .  A
O139       C1294   1.259       .  A
O140      Fe1287   2.094       .  S
O140        C152   1.271       .  A
O141        C154   1.270       .  A
C142        O147   1.267       .  A
C142       O1291   1.263   1_545  A
C142       C1083   1.489       .  S
C143       O1290   1.271   1_545  A
C143        C904   1.480       .  S
O144      Fe1287   1.993       .  S
O145        C148   1.264       .  A
O146        C148   1.264       .  A
C148        C792   1.495       .  S
O149        C154   1.270       .  A
O150        C152   1.267       .  A
C151        O153   1.276       .  A
C151        C775   1.495       .  S
C152        C803   1.492       .  S
O153      Fe1287   2.107       .  S
C154        C761   1.487       .  S
Fe155       O171   2.060       .  S
Fe155       O161   2.056       .  S
Fe155       O168   2.057       .  S
Fe155       O160   2.061       .  S
Fe155       O166   1.960       .  S
Fe156       O159   2.060       .  S
Fe156       O163   2.073       .  S
Fe156       O167   2.080       .  S
Fe156       O172   2.061       .  S
Fe156       O166   1.984       .  S
Fe157       O175   2.108       .  S
Fe157       O162   2.073       .  S
Fe157       O169   2.096       .  S
Fe157       O158   2.118       .  S
Fe157       O166   1.995       .  S
O158        C165   1.280       .  A
O159        C173   1.272       .  A
O160        C165   1.273       .  A
O161        C164   1.264       .  A
O162        C174   1.267       .  A
O163        C176   1.268       .  A
C164        O169   1.269       .  A
C164        C806   1.492       .  S
C165        C736   1.507       .  S
O167        C170   1.270       .  A
O168        C170   1.269       .  A
C170        C722   1.490       .  S
O171        C176   1.269       .  A
O172        C174   1.265       .  A
C173        O175   1.282       .  A
C173        C705   1.509       .  S
C174        C694   1.483       .  S
C176        C747   1.501       .  S
Fe177       O193   2.106       .  S
Fe177       O183   2.021       .  S
Fe177       O190   2.059       .  S
Fe177       O182   2.076       .  S
Fe177       O188   1.950       .  S
Fe178       O181   2.072       .  S
Fe178       O185   2.023       .  S
Fe178       O189   2.082       .  S
Fe178       O194   2.024       .  S
Fe178       O188   1.919       .  S
Fe179       O184   2.152       .  S
Fe179       O191   2.121       .  S
Fe179       O180   2.060       .  S
Fe179      O2501   2.080       .  S
Fe179      O2492   1.947       .  S
O180        C187   1.271       .  A
O181        C195   1.269       .  A
O182       C2491   1.271       .  A
O183       C2490   1.266   1_455  A
O184       C2500   1.286       .  A
O185        C198   1.265       .  A
C186        O191   1.283       .  A
C186       O2487   1.266       .  A
C186        C859   1.496       .  S
C187       O2486   1.272       .  A
C187       C1072   1.487       .  S
O188      Fe2483   1.950       .  S
O189        C192   1.270       .  A
O190        C192   1.265       .  A
C192        C663   1.474       .  S
O193        C198   1.274       .  A
O194        C196   1.263       .  A
C195        O197   1.270       .  A
C195        C733   1.496       .  S
C196       O2488   1.289       .  A
C196        C680   1.532       .  S
O197      Fe2483   2.092       .  S
C198        C789   1.481       .  S
Fe199       O215   2.034       .  S
Fe199       O205   2.056       .  S
Fe199       O212   2.087       .  S
Fe199       O204   2.028       .  S
Fe199       O210   1.971       .  S
Fe200       O203   2.051       .  S
Fe200       O207   2.074       .  S
Fe200       O211   2.051       .  S
Fe200       O216   2.062       .  S
Fe200       O210   1.957       .  S
Fe201       O219   2.097       .  S
Fe201       O206   2.102       .  S
Fe201       O213   2.100       .  S
Fe201       O202   2.099       .  S
Fe201       O210   1.983       .  S
O202        C209   1.271       .  A
O203        C217   1.264       .  A
O204        C209   1.256       .  A
O205        C208   1.274       .  A
O206        C218   1.278       .  A
O207        C220   1.266       .  A
C208        O213   1.282       .  A
C208        C624   1.502       .  S
C209        C607   1.511       .  S
O211        C214   1.270       .  A
O212        C214   1.276       .  A
C214        C719   1.489       .  S
O215        C220   1.257       .  A
O216        C218   1.272       .  A
C217        O219   1.273       .  A
C217        C649   1.493       .  S
C218        C677   1.511       .  S
C220        C638   1.480       .  S
Fe221       O237   2.090       .  S
Fe221       O227   2.036       .  S
Fe221       O234   2.070   1_554  S
Fe221       O226   2.057       .  S
Fe221       O232   1.989       .  S
Fe222       O225   2.034       .  S
Fe222       O229   2.057       .  S
Fe222       O233   2.044       .  S
Fe222       O238   2.037       .  S
Fe222       O232   1.961       .  S
Fe223       O241   2.114       .  S
Fe223       O228   2.113       .  S
Fe223       O235   2.091       .  S
Fe223       O224   2.090       .  S
Fe223       O232   1.990       .  S
O224        C231   1.278       .  A
O225        C239   1.261       .  A
O226        C231   1.272       .  A
O227        C230   1.262       .  A
O228        C240   1.276       .  A
O229        C242   1.270       .  A
C230        O235   1.272       .  A
C230        C565   1.483       .  S
C231        C579   1.496       .  S
O233        C236   1.262       .  A
O234        C236   1.262   1_556  A
C236        C635   1.472   1_554  S
O237        C242   1.272       .  A
O238        C240   1.266       .  A
C239        O241   1.277       .  A
C239        C778   1.517       .  S
C240        C593   1.508       .  S
C242        C750   1.486       .  S
Fe243       O259   2.066       .  S
Fe243       O249   2.057       .  S
Fe243       O256   2.055       .  S
Fe243       O248   2.064       .  S
Fe243       O254   1.962       .  S
Fe244       O247   2.035       .  S
Fe244       O251   2.058       .  S
Fe244       O255   2.055       .  S
Fe244       O260   2.049       .  S
Fe244       O254   1.974       .  S
Fe245       O263   2.082       .  S
Fe245       O250   2.082       .  S
Fe245       O257   2.100       .  S
Fe245       O246   2.095       .  S
Fe245       O254   1.983       .  S
O246        C253   1.270       .  A
O247        C261   1.259       .  A
O248        C253   1.267       .  A
O249        C252   1.270       .  A
O250        C262   1.278       .  A
O251        C264   1.270       .  A
C252        O257   1.278       .  A
C252        C596   1.492       .  S
C253        C652   1.495       .  S
O255        C258   1.262       .  A
O256        C258   1.265       .  A
C258        C666   1.496       .  S
O259        C264   1.273       .  A
O260        C262   1.271       .  A
C261        O263   1.268       .  A
C261        C848   1.494       .  S
C262        C890   1.470       .  S
C264        C764   1.486       .  S
Fe265       O281   2.068       .  S
Fe265       O271   2.033       .  S
Fe265       O278   2.034       .  S
Fe265       O270   2.074       .  S
Fe265       O276   1.970       .  S
Fe266       O269   2.065       .  S
Fe266       O273   2.047       .  S
Fe266       O277   2.090       .  S
Fe266       O282   2.026       .  S
Fe266       O276   1.985       .  S
Fe267       O285   2.091       .  S
Fe267       O272   2.083       .  S
Fe267       O279   2.107       .  S
Fe267       O268   2.104       .  S
Fe267       O276   1.988       .  S
O268        C275   1.275       .  A
O269        C283   1.270       .  A
O270        C275   1.272       .  A
O271        C274   1.261       .  A
O272        C284   1.270       .  A
O273        C286   1.264       .  A
C274        O279   1.274       .  A
C274        C551   1.488       .  S
C275        C523   1.498       .  S
O277        C280   1.271       .  A
O278        C280   1.262       .  A
C280        C509   1.500       .  S
O281        C286   1.269       .  A
O282        C284   1.260       .  A
C283        O285   1.278       .  A
C283        C610   1.485       .  S
C284        C568   1.483       .  S
C286        C537   1.478       .  S
Fe287       O303   2.077       .  S
Fe287       O293   2.079       .  S
Fe287       O300   2.098       .  S
Fe287       O292   2.062       .  S
Fe287       O298   1.948       .  S
Fe288       O291   2.031       .  S
Fe288       O295   2.058       .  S
Fe288       O299   2.034       .  S
Fe288       O304   2.075       .  S
Fe288       O298   1.918       .  S
Fe289       O307   2.135       .  S
Fe289       O294   2.082       .  S
Fe289       O301   2.057       .  S
Fe289       O290   2.092       .  S
Fe289      O2602   1.952   1_455  S
O290        C297   1.275       .  A
O291        C305   1.261       .  A
O292       C2601   1.271       .  A
O293       C2600   1.274       .  A
O294       C2610   1.268   1_455  A
O295        C308   1.268       .  A
C296        O301   1.273       .  A
C296       O2597   1.273   1_455  A
C296        C932   1.469       .  S
C297       O2596   1.271   1_455  A
C297       C1016   1.496       .  S
O298      Fe2593   1.957       .  S
O299        C302   1.266       .  A
O300        C302   1.274       .  A
C302        C467   1.486       .  S
O303        C308   1.271       .  A
O304        C306   1.270       .  A
C305       O2611   1.279       .  A
C305        C495   1.486       .  S
C306       O2598   1.268       .  A
C306        C554   1.484       .  S
O307       C2609   1.280   1_455  A
C308        C484   1.488       .  S
Fe309       O325   2.058       .  S
Fe309       O315   2.078       .  S
Fe309       O322   2.094       .  S
Fe309       O314   2.033       .  S
Fe309       O320   1.988       .  S
Fe310       O313   2.022       .  S
Fe310       O317   2.057       .  S
Fe310       O321   2.017       .  S
Fe310       O326   2.057       .  S
Fe310       O320   1.960       .  S
Fe311       O329   2.124       .  S
Fe311       O316   2.106       .  S
Fe311       O323   2.074       .  S
Fe311       O312   2.098       .  S
Fe311       O320   1.985       .  S
O312        C319   1.275       .  A
O313        C327   1.256       .  A
O314        C319   1.264       .  A
O315        C318   1.273       .  A
O316        C328   1.277       .  A
O317        C330   1.271       .  A
C318        O323   1.274       .  A
C318        C691   1.498       .  S
C319        C582   1.497       .  S
O321        C324   1.258       .  A
O322        C324   1.270       .  A
C324        C439   1.495       .  S
O325        C330   1.266       .  A
O326        C328   1.270       .  A
C327        O329   1.275       .  A
C327        C498   1.510       .  S
C328        C453   1.489       .  S
C330        C540   1.471       .  S
Fe331       O347   2.080       .  S
Fe331       O337   2.065       .  S
Fe331       O344   2.083       .  S
Fe331       O336   2.063       .  S
Fe331       O342   1.982       .  S
Fe332       O335   2.053       .  S
Fe332       O339   2.041       .  S
Fe332       O343   2.038       .  S
Fe332       O348   2.053       .  S
Fe332       O342   1.968       .  S
Fe333       O351   2.107       .  S
Fe333       O338   2.110       .  S
Fe333       O345   2.077       .  S
Fe333       O334   2.077       .  S
Fe333       O342   1.987       .  S
O334        C341   1.272       .  A
O335        C349   1.265       .  A
O336        C341   1.269       .  A
O337        C340   1.270       .  A
O338        C350   1.276       .  A
O339        C352   1.265       .  A
C340        O345   1.273       .  A
C340        C621   1.503       .  S
C341        C708   1.510       .  S
O343        C346   1.264       .  A
O344        C346   1.270       .  A
C346        C512   1.500       .  S
O347        C352   1.269       .  A
O348        C350   1.266       .  A
C349        O351   1.273       .  A
C349        C414   1.494       .  S
C350        C425   1.493       .  S
C352        C442   1.507       .  S
Fe353       O369   2.101       .  S
Fe353       O359   2.073       .  S
Fe353       O366   2.079       .  S
Fe353       O358   2.082       .  S
Fe353       O364   1.959       .  S
Fe354       O357   2.057       .  S
Fe354       O361   2.041       .  S
Fe354       O365   2.062       .  S
Fe354       O370   2.036       .  S
Fe354       O364   1.942       .  S
Fe355       O373   2.100       .  S
Fe355       O360   2.116       .  S
Fe355       O367   2.086       .  S
Fe355       O356   2.086       .  S
Fe355      O1516   1.970       .  S
O356        C363   1.274       .  A
O357        C371   1.261       .  A
O358       C1515   1.274   1_545  A
O359       C1514   1.273   1_545  A
O360       C1524   1.278       .  A
O361        C374   1.267       .  A
C362        O367   1.275       .  A
C362       O1511   1.274       .  A
C362        C834   1.502       .  S
C363       O1510   1.271       .  A
C363        C946   1.523       .  S
O364      Fe1507   1.958   1_545  S
O365        C368   1.266       .  A
O366        C368   1.270       .  A
C368        C400   1.493       .  S
O369        C374   1.276       .  A
O370        C372   1.268       .  A
C371       O1525   1.270   1_545  A
C371        C526   1.493       .  S
C372       O1512   1.283   1_545  A
C372        C428   1.494       .  S
O373       C1523   1.272       .  A
C374        C470   1.487       .  S
Fe375       O391   2.041       .  S
Fe375       O381   2.055       .  S
Fe375       O388   2.042       .  S
Fe375       O380   2.053       .  S
Fe375       O386   1.970       .  S
Fe376       O379   2.064       .  S
Fe376       O383   2.087       .  S
Fe376       O387   2.091       .  S
Fe376       O392   2.065       .  S
Fe376       O386   1.982       .  S
Fe377       O395   2.081       .  S
Fe377       O382   2.076       .  S
Fe377       O389   2.109       .  S
Fe377       O378   2.102       .  S
Fe377       O386   1.993       .  S
O378        C385   1.272       .  A
O379        C393   1.270       .  A
O380        C385   1.264       .  A
O381        C384   1.267       .  A
O382        C394   1.272       .  A
O383        C396   1.272       .  A
C384        O389   1.275       .  A
C384        C456   1.495       .  S
C385        C411   1.492       .  S
O387        C390   1.272       .  A
O388        C390   1.266       .  A
C390        C397   1.502       .  S
O391        C396   1.264       .  A
O392        C394   1.272       .  A
C393        O395   1.272       .  A
C393        C820   1.494       .  S
C394       C1002   1.500       .  S
C396        C481   1.505       .  S
C397        C398   1.417       .  A
C397        C402   1.420       .  A
C398        C399   1.406       .  A
C398        C403   1.451       .  S
C399        C400   1.414       .  A
C399        C406   1.452       .  S
C400        C401   1.415       .  A
C401        C402   1.420       .  A
C401        C404   1.450       .  S
C402        C405   1.450       .  S
C403        N410   1.156       .  T
C404        N409   1.158       .  T
C405        N407   1.157       .  T
C406        N408   1.156       .  T
C411        C412   1.414       .  A
C411        C416   1.408       .  A
C412        C413   1.419       .  A
C412        C417   1.450       .  S
C413        C414   1.410       .  A
C413        C420   1.444       .  S
C414        C415   1.412       .  A
C415        C416   1.414       .  A
C415        C418   1.450       .  S
C416        C419   1.445       .  S
C417        N424   1.158       .  T
C418        N423   1.157       .  T
C419        N421   1.155       .  T
C420        N422   1.156       .  T
C425        C426   1.409       .  A
C425        C430   1.415       .  A
C426        C427   1.414       .  A
C426        C431   1.443       .  S
C427        C428   1.412       .  A
C427        C434   1.451       .  S
C428        C429   1.408       .  A
C429        C430   1.418       .  A
C429       C1584   1.443   1_545  S
C430       C1585   1.450       .  S
C431        N438   1.155       .  T
C432       C1581   1.447       .  S
C432        N437   1.156       .  T
C433       C1582   1.453       .  S
C433        N435   1.158       .  T
C434        N436   1.157       .  T
C439        C440   1.415       .  A
C439        C444   1.411       .  A
C440        C441   1.405       .  A
C440        C445   1.453       .  S
C441        C442   1.422       .  A
C441        C448   1.455       .  S
C442        C443   1.425       .  A
C443        C444   1.419       .  A
C443        C446   1.450       .  S
C444        C447   1.450       .  S
C445        N452   1.156       .  T
C446        N451   1.158   1_556  T
C447        N449   1.157   1_556  T
C448        N450   1.157       .  T
C453        C454   1.414       .  A
C453        C458   1.408       .  A
C454        C455   1.418       .  A
C454        C459   1.450       .  S
C455        C456   1.409       .  A
C455        C462   1.445       .  S
C456        C457   1.414       .  A
C457        C458   1.414       .  A
C457        C460   1.447       .  S
C458        C461   1.450       .  S
C459        N466   1.157       .  T
C460        N465   1.156       .  T
C461        N463   1.157       .  T
C462        N464   1.157       .  T
C467        C468   1.415       .  A
C467        C472   1.415       .  A
C468        C469   1.402       .  A
C468        C473   1.456       .  S
C469        C470   1.416       .  A
C469        C476   1.455       .  S
C470        C471   1.415       .  A
C471        C472   1.418       .  A
C471        C474   1.450       .  S
C472        C475   1.450       .  S
C473        N480   1.157       .  T
C474        N479   1.157       .  T
C475        N477   1.158       .  T
C476        N478   1.158       .  T
C481        C482   1.424       .  A
C481        C486   1.424       .  A
C482        C483   1.419       .  A
C482        C487   1.450       .  S
C483        C484   1.411       .  A
C483        C490   1.450       .  S
C484        C485   1.409       .  A
C485        C486   1.405       .  A
C485        C488   1.454       .  S
C486        C489   1.452       .  S
C487        N494   1.157       .  T
C488        N493   1.157       .  T
C489        N491   1.157       .  T
C490        N492   1.157       .  T
C495        C496   1.415       .  A
C495        C500   1.401       .  A
C496        C497   1.427       .  A
C496       C2805   1.448       .  S
C497        C498   1.420       .  A
C497        C504   1.447       .  S
C498        C499   1.426       .  A
C499        C500   1.403       .  A
C499        C502   1.449       .  S
C500        C503   1.452       .  S
C501       C2800   1.448       .  S
C501        N508   1.157   1_655  T
C502        N507   1.157       .  T
C503        N505   1.156       .  T
C504       N2810   1.157       .  T
N506       C2808   1.157       .  T
C509        C510   1.420       .  A
C509        C514   1.416       .  A
C510        C511   1.405       .  A
C510        C515   1.454       .  S
C511        C512   1.418       .  A
C511        C518   1.455       .  S
C512        C513   1.419       .  A
C513        C514   1.417       .  A
C513        C516   1.450       .  S
C514        C517   1.449       .  S
C515        N522   1.157       .  T
C516        N521   1.157   1_556  T
C517        N519   1.157   1_556  T
C518        N520   1.157       .  T
C523        C524   1.411       .  A
C523        C528   1.411       .  A
C524        C525   1.420       .  A
C524        C529   1.446       .  S
C525        C526   1.415       .  A
C525       C1684   1.450       .  S
C526        C527   1.408       .  A
C527        C528   1.413       .  A
C527        C530   1.445   1_545  S
C528        C531   1.446       .  S
C529        N536   1.158       .  T
C530        N535   1.156       .  T
C531        N533   1.155       .  T
C532       C1677   1.449       .  S
C532        N534   1.158       .  T
C537        C538   1.412       .  A
C537        C542   1.418       .  A
C538        C539   1.406       .  A
C538        C543   1.447       .  S
C539        C540   1.404       .  A
C539        C546   1.450       .  S
C540        C541   1.406       .  A
C541        C542   1.407       .  A
C541        C544   1.450       .  S
C542        C545   1.450       .  S
C543        N550   1.157       .  T
C544        N549   1.157   1_556  T
C545        N547   1.156   1_556  T
C546        N548   1.157       .  T
C551        C552   1.415       .  A
C551        C556   1.415       .  A
C552        C553   1.402       .  A
C552        C557   1.450       .  S
C553        C554   1.403       .  A
C553        C560   1.449       .  S
C554        C555   1.410       .  A
C555        C556   1.421       .  A
C555       C2862   1.447       .  S
C556        C559   1.445       .  S
C557        N564   1.156       .  T
C558       C2859   1.448   1_455  S
C558        N563   1.157       .  T
C559       N2865   1.157       .  T
C560        N562   1.158       .  T
N561       C2863   1.157   1_455  T
C565        C566   1.408       .  A
C565        C570   1.414       .  A
C566       C1719   1.403   1_554  A
C566        C571   1.448       .  S
C567        C568   1.414       .  A
C567       C1718   1.398   1_545  A
C567        C574   1.453       .  S
C568        C569   1.416       .  A
C569       C1722   1.417   1_546  A
C569        C572   1.449       .  S
C570       C1721   1.420   1_554  A
C570        C573   1.450       .  S
C571        N578   1.155       .  T
C572        N577   1.158       .  T
C573        N575   1.157       .  T
C574        N576   1.156       .  T
C579        C580   1.420   1_554  A
C579        C584   1.414       .  A
C580        C581   1.413       .  A
C580        C585   1.452       .  S
C581        C582   1.412       .  A
C581        C588   1.451       .  S
C582        C583   1.422   1_556  A
C583        C584   1.412       .  A
C583        C586   1.454       .  S
C584        C587   1.452       .  S
C585        N592   1.157       .  T
C586        N591   1.157       .  T
C587        N589   1.158       .  T
C588        N590   1.158       .  T
C593        C594   1.420       .  A
C593        C598   1.416       .  A
C594        C595   1.424       .  A
C594        C599   1.448       .  S
C595        C596   1.415       .  A
C595        C602   1.449       .  S
C596        C597   1.411       .  A
C597        C598   1.404       .  A
C597        C600   1.451       .  S
C598        C601   1.448       .  S
C599        N606   1.158       .  T
C600        N605   1.157       .  T
C601        N603   1.154       .  T
C602        N604   1.157       .  T
C607        C608   1.428   1_554  A
C607        C612   1.422       .  A
C608       C2913   1.409   1_455  A
C608        C613   1.452       .  S
C609        C610   1.403       .  A
C609       C2912   1.409       .  A
C609        C616   1.447       .  S
C610        C611   1.410   1_556  A
C611       C2916   1.417       .  A
C611        C614   1.449       .  S
C612       C2915   1.419   1_455  A
C612        C615   1.450       .  S
C613        N620   1.158       .  T
C614        N619   1.157       .  T
C615        N617   1.157       .  T
C616        N618   1.155       .  T
C621        C622   1.417       .  A
C621        C626   1.421   1_556  A
C622        C623   1.414       .  A
C622        C627   1.452       .  S
C623        C624   1.420   1_556  A
C623        C630   1.453       .  S
C624        C625   1.417       .  A
C625        C626   1.415       .  A
C625        C628   1.452       .  S
C626        C629   1.452       .  S
C627        N634   1.158       .  T
C628        N633   1.158       .  T
C629        N631   1.156       .  T
C630        N632   1.157       .  T
C635        C636   1.404       .  A
C635        C640   1.406   1_556  A
C636        C637   1.403       .  A
C636        C641   1.444       .  S
C637        C638   1.416   1_556  A
C637        C644   1.454       .  S
C638        C639   1.410       .  A
C639        C640   1.413       .  A
C639        C642   1.445       .  S
C640        C643   1.449       .  S
C641        N648   1.155       .  T
C642        N647   1.156       .  T
C643        N645   1.157       .  T
C644        N646   1.157       .  T
C649        C650   1.414       .  A
C649        C654   1.414       .  A
C650        C651   1.411       .  A
C650        C655   1.450       .  S
C651        C652   1.408       .  A
C651        C658   1.444       .  S
C652        C653   1.412       .  A
C653        C654   1.417       .  A
C653        C656   1.450       .  S
C654        C657   1.447       .  S
C655        N662   1.158       .  T
C656        N661   1.158       .  T
C657        N659   1.156       .  T
C658        N660   1.156       .  T
C663        C664   1.404       .  A
C663        C668   1.404       .  A
C664        C665   1.411       .  A
C664        C669   1.447       .  S
C665        C666   1.423       .  A
C665        C672   1.449       .  S
C666        C667   1.416       .  A
C667        C668   1.406       .  A
C667        C670   1.449       .  S
C668        C671   1.446       .  S
C669        N676   1.156       .  T
C670        N675   1.156       .  T
C671        N673   1.155       .  T
C672        N674   1.157       .  T
C677        C678   1.415       .  A
C677        C682   1.416       .  A
C678        C679   1.411       .  A
C678        C683   1.458       .  S
C679        C680   1.436       .  A
C679        C686   1.456       .  S
C680        C681   1.426       .  A
C681        C682   1.428       .  A
C681       C2988   1.449       .  S
C682        C685   1.449       .  S
C683        N690   1.158       .  T
C684       C2985   1.448       .  S
C684        N689   1.158       .  T
C685       N2991   1.158       .  T
C686        N688   1.158       .  T
N687       C2989   1.157       .  T
C691        C692   1.420   1_556  A
C691        C696   1.417       .  A
C692       C2997   1.416       .  A
C692        C697   1.451       .  S
C693        C694   1.410       .  A
C693       C2996   1.415   1_455  A
C693        C700   1.450       .  S
C694        C695   1.410       .  A
C695       C3000   1.410   1_454  A
C695        C698   1.451   1_554  S
C696       C2999   1.413   1_556  A
C696        C699   1.452       .  S
C697        N704   1.157       .  T
C698        N703   1.157       .  T
C699        N701   1.158       .  T
C700        N702   1.158       .  T
C705        C706   1.423   1_554  A
C705        C710   1.417       .  A
C706        C707   1.415       .  A
C706        C711   1.452       .  S
C707       C1860   1.414       .  A
C707        C714   1.453       .  S
C708        C709   1.427   1_556  A
C708       C1859   1.421   1_545  A
C709       C1862   1.414   1_545  A
C709        C712   1.451       .  S
C710       C1861   1.418       .  A
C710        C713   1.451       .  S
C711        N718   1.158       .  T
C712        N717   1.157       .  T
C713        N715   1.157       .  T
C714        N716   1.157       .  T
C719        C720   1.414       .  A
C719        C724   1.416       .  A
C720        C721   1.418       .  A
C720        C725   1.448       .  S
C721        C722   1.414       .  A
C721        C728   1.448       .  S
C722        C723   1.413       .  A
C723        C724   1.404       .  A
C723        C726   1.452       .  S
C724        C727   1.455       .  S
C725        N732   1.157       .  T
C726        N731   1.156       .  T
C727        N729   1.158       .  T
C728        N730   1.157       .  T
C733        C734   1.416       .  A
C733        C738   1.408       .  A
C734        C735   1.428       .  A
C734        C739   1.447       .  S
C735        C736   1.417       .  A
C735        C742   1.446       .  S
C736        C737   1.414       .  A
C737        C738   1.406       .  A
C737        C740   1.446       .  S
C738       C3045   1.450       .  S
C739        N746   1.157       .  T
C740        N745   1.154       .  T
C741       C3042   1.452       .  S
C741        N743   1.157       .  T
C742        N744   1.158       .  T
C747        C748   1.415       .  A
C747        C752   1.425   1_554  A
C748        C749   1.406       .  A
C748        C753   1.446       .  S
C749        C750   1.407       .  A
C749        C756   1.450       .  S
C750        C751   1.405   1_554  A
C751        C752   1.417       .  A
C751        C754   1.446       .  S
C752        C755   1.449       .  S
C753        N760   1.155       .  T
C754        N759   1.157       .  T
C755        N757   1.158       .  T
C756        N758   1.157       .  T
C761        C762   1.414       .  A
C761        C766   1.415       .  A
C762        C763   1.412       .  A
C762        C767   1.449       .  S
C763        C764   1.416       .  A
C763        C770   1.450       .  S
C764        C765   1.411       .  A
C765        C766   1.405       .  A
C765        C768   1.452       .  S
C766        C769   1.449       .  S
C767        N774   1.157       .  T
C768        N773   1.157       .  T
C769        N771   1.156       .  T
C770        N772   1.157       .  T
C775        C776   1.413       .  A
C775        C780   1.410       .  A
C776        C777   1.426       .  A
C776       C1933   1.449       .  S
C777        C778   1.423       .  A
C777        C784   1.449       .  S
C778        C779   1.430       .  A
C779        C780   1.404       .  A
C779        C782   1.454       .  S
C780        C783   1.457       .  S
C781       C1928   1.449       .  S
C781        N788   1.157       .  T
C782        N787   1.157       .  T
C783        N785   1.157       .  T
C784       N1938   1.157       .  T
N786       C1936   1.157       .  T
C789        C790   1.403       .  A
C789        C794   1.404       .  A
C790        C791   1.401       .  A
C790        C795   1.448       .  S
C791        C792   1.418       .  A
C791        C798   1.447       .  S
C792        C793   1.423       .  A
C793        C794   1.414       .  A
C793        C796   1.448       .  S
C794        C797   1.446       .  S
C795        N802   1.156       .  T
C796        N801   1.157       .  T
C797        N799   1.156       .  T
C798        N800   1.155       .  T
C803        C804   1.408       .  A
C803        C808   1.413       .  A
C804        C805   1.415       .  A
C804        C809   1.446       .  S
C805        C806   1.411       .  A
C805        C812   1.445       .  S
C806        C807   1.409       .  A
C807        C808   1.415       .  A
C807        C810   1.447       .  S
C808       C1963   1.447       .  S
C809        N816   1.157       .  T
C810       N1967   1.157       .  T
C811       C1960   1.448       .  S
C811        N813   1.158   1_565  T
C812        N814   1.157       .  T
N815       C1962   1.157       .  T
C817        C818   1.415       .  A
C817        C822   1.410       .  A
C818        C819   1.410       .  A
C818        C823   1.449       .  S
C819        C820   1.413       .  A
C819        C826   1.452       .  S
C820        C821   1.418       .  A
C821        C822   1.415       .  A
C821        C824   1.446       .  S
C822        C825   1.452       .  S
C823        N830   1.157       .  T
C824        N829   1.156       .  T
C825        N827   1.157       .  T
C826        N828   1.157       .  T
C831        C832   1.418       .  A
C831        C836   1.419       .  A
C832        C833   1.418       .  A
C832        C837   1.451       .  S
C833        C834   1.416       .  A
C833        C840   1.451       .  S
C834        C835   1.415       .  A
C835        C836   1.416       .  A
C835        C838   1.451       .  S
C836        C839   1.452       .  S
C837        N844   1.157       .  T
C838        N843   1.157       .  T
C839        N841   1.158       .  T
C840       N1994   1.157       .  T
N842       C1992   1.157       .  T
C845        C846   1.420       .  A
C845        C850   1.428       .  A
C846        C847   1.412       .  A
C846        C851   1.453       .  S
C847        C848   1.418       .  A
C847        C854   1.454       .  S
C848        C849   1.409       .  A
C849        C850   1.415       .  A
C849        C852   1.451       .  S
C850        C853   1.451       .  S
C851        N858   1.157       .  T
C852        N857   1.157       .  T
C853        N855   1.158       .  T
C854        N856   1.158       .  T
C859        C860   1.413       .  A
C859        C864   1.422       .  A
C860        C861   1.416       .  A
C860        C865   1.451       .  S
C861        C862   1.419       .  A
C861        C868   1.450       .  S
C862        C863   1.412       .  A
C863        C864   1.408       .  A
C863        C866   1.453       .  S
C864       C3171   1.454       .  S
C865        N872   1.158       .  T
C866       N3175   1.157       .  T
C867       C3168   1.455       .  S
C867        N869   1.158   1_655  T
C868        N870   1.157       .  T
N871       C3170   1.157       .  T
C873        C874   1.412       .  A
C873        C878   1.413       .  A
C874        C875   1.422       .  A
C874        C879   1.444       .  S
C875        C876   1.413       .  A
C875        C882   1.450       .  S
C876        C877   1.409       .  A
C877        C878   1.415       .  A
C877        C880   1.446       .  S
C878        C881   1.446       .  S
C879        N886   1.156       .  T
C880        N885   1.156       .  T
C881        N883   1.155       .  T
C882        N884   1.157       .  T
C887        C888   1.427       .  A
C887        C892   1.422       .  A
C888        C889   1.412       .  A
C888        C893   1.450       .  S
C889        C890   1.403       .  A
C889        C896   1.451       .  S
C890        C891   1.404       .  A
C891        C892   1.405       .  A
C891        C894   1.450       .  S
C892        C895   1.450       .  S
C893        N900   1.157       .  T
C894        N899   1.156       .  T
C895        N897   1.157       .  T
C896        N898   1.157       .  T
C901        C902   1.419       .  A
C901        C906   1.418       .  A
C902        C903   1.406       .  A
C902       C2059   1.453       .  S
C903        C904   1.409       .  A
C903       C2062   1.450   1_545  S
C904        C905   1.409       .  A
C905        C906   1.415       .  A
C905        C908   1.449       .  S
C906        C909   1.449       .  S
C907       C2054   1.454       .  S
C907        N914   1.157       .  T
C908        N913   1.157       .  T
C909        N911   1.157       .  T
C910       C2055   1.448       .  S
C910        N912   1.155       .  T
C915       C2414   1.500   1_455  S
C915        C916   1.419       .  A
C915        C920   1.419       .  A
C916        C917   1.420       .  A
C916        C921   1.451       .  S
C917        C918   1.418       .  A
C917        C924   1.450       .  S
C918       C1234   1.503       .  S
C918        C919   1.416       .  A
C919        C920   1.405       .  A
C919        C922   1.452       .  S
C920        C923   1.453       .  S
C921       N3232   1.157   1_455  T
C922        N927   1.156       .  T
C923        N925   1.157       .  T
C924       N2078   1.157       .  T
N926       C2076   1.157       .  T
N928       C3225   1.157       .  T
C929        C930   1.417       .  A
C929        C934   1.419       .  A
C930        C931   1.410       .  A
C930        C935   1.451       .  S
C931        C932   1.408       .  A
C931        C938   1.451       .  S
C932        C933   1.407       .  A
C933        C934   1.405       .  A
C933        C936   1.452   1_455  S
C934        C937   1.453       .  S
C935        N942   1.158       .  T
C936        N941   1.157       .  T
C937        N939   1.157   1_455  T
C938       N3244   1.157       .  T
N940       C3242   1.158       .  T
C943        C944   1.412       .  A
C943        C948   1.414       .  A
C944        C945   1.416       .  A
C944        C949   1.452       .  S
C945        C946   1.429       .  A
C945        C952   1.453       .  S
C946        C947   1.426       .  A
C947        C948   1.419       .  A
C947        C950   1.451       .  S
C948        C951   1.453       .  S
C949        N956   1.157       .  T
C950       N2107   1.158       .  T
C951        N953   1.157       .  T
C952        N954   1.157       .  T
N955       C2102   1.157       .  T
C957       C2364   1.502       .  S
C957        C958   1.418       .  A
C957        C962   1.418       .  A
C958        C959   1.406       .  A
C958        C963   1.454       .  S
C959        C960   1.419       .  A
C959        C966   1.454       .  S
C960        C961   1.419       .  A
C961        C962   1.418       .  A
C961        C964   1.449       .  S
C962       C3269   1.450       .  S
C963        N970   1.157       .  T
C964        N969   1.158       .  T
C965       C3266   1.450       .  S
C965        N967   1.157       .  T
C966        N968   1.157       .  T
C971        C976   1.408       .  A
C971       C2124   1.412       .  A
C972        C973   1.412       .  A
C972       C2123   1.411   1_545  A
C972        C977   1.451       .  S
C973        C974   1.409       .  A
C973        C980   1.447       .  S
C974       C2127   1.413       .  A
C975        C976   1.417       .  A
C975       C2126   1.414       .  A
C975        C978   1.450       .  S
C976        C979   1.447       .  S
C977        N984   1.157       .  T
C978        N983   1.157       .  T
C979        N981   1.157       .  T
C980        N982   1.157       .  T
C985        C990   1.410       .  A
C985       C3290   1.415       .  A
C986        C987   1.419       .  A
C986       C3289   1.416       .  A
C986        C991   1.449       .  S
C987        C988   1.407       .  A
C987        C994   1.445       .  S
C988       C3293   1.412       .  A
C989        C990   1.415       .  A
C989       C3292   1.414   1_455  A
C989        C992   1.452       .  S
C990        C993   1.447       .  S
C991        N998   1.157       .  T
C992        N997   1.157       .  T
C993        N995   1.157       .  T
C994        N996   1.157       .  T
C999       C1000   1.406       .  A
C999       C1004   1.411       .  A
C1000      C1001   1.414       .  A
C1000      C1005   1.452       .  S
C1001      C1002   1.423       .  A
C1001      C1008   1.449       .  S
C1002      C1003   1.419       .  A
C1003      C1004   1.409       .  A
C1003      C1006   1.453       .  S
C1004      C1007   1.452       .  S
C1005      N1012   1.157       .  T
C1006      N1011   1.158       .  T
C1007      N1009   1.157       .  T
C1008      N1010   1.157       .  T
C1013      C1014   1.412       .  A
C1013      C1018   1.412       .  A
C1014      C1015   1.412       .  A
C1014      C1019   1.452       .  S
C1015      C1016   1.418       .  A
C1015      C1022   1.451       .  S
C1016      C1017   1.418       .  A
C1017      C1018   1.413       .  A
C1017      C3324   1.452   1_455  S
C1018      C1021   1.451       .  S
C1019      N1026   1.157       .  T
C1020      C3321   1.452       .  S
C1020      N1025   1.158       .  T
C1021      N1023   1.157       .  T
C1022      N1024   1.157       .  T
C1027      C1284   1.490   1_545  S
C1027      C1028   1.417       .  A
C1027      C1032   1.415       .  A
C1028      C1029   1.412       .  A
C1028      C2185   1.450   1_545  S
C1029      C1030   1.415       .  A
C1029      C3340   1.450       .  S
C1030      C2342   1.486       .  S
C1030      C1031   1.407       .  A
C1031      C1032   1.403       .  A
C1031      C1034   1.449       .  S
C1032      C1035   1.443       .  S
C1033      C2180   1.448       .  S
C1033      N1040   1.156       .  T
C1034      N1039   1.157       .  T
C1035      N1037   1.154       .  T
C1036      C3333   1.448   1_455  S
C1036      N1038   1.156       .  T
C1041      C1218   1.496   1_545  S
C1041      C1042   1.425       .  A
C1041      C1046   1.415       .  A
C1042      C1043   1.418       .  A
C1042      C1047   1.450       .  S
C1043      C1044   1.406       .  A
C1043      C1050   1.448       .  S
C1044      C1045   1.409       .  A
C1045      C1046   1.401       .  A
C1045      C1048   1.448       .  S
C1046      C2201   1.452       .  S
C1047      N1054   1.157   1_545  T
C1048      N1053   1.155       .  T
C1049      C2198   1.453       .  S
C1049      N1051   1.157       .  T
C1050      N1052   1.157       .  T
C1055      C1056   1.414       .  A
C1055      C1060   1.409       .  A
C1056      C1057   1.407       .  A
C1056      C1061   1.446       .  S
C1057      C1058   1.408       .  A
C1057      C1064   1.452       .  S
C1058      C1059   1.415       .  A
C1059      C1060   1.418       .  A
C1059      C1062   1.446       .  S
C1060      C1063   1.448       .  S
C1061      N1068   1.155       .  T
C1062      N1067   1.157       .  T
C1063      N1065   1.157       .  T
C1064      N1066   1.157       .  T
C1069      C1070   1.428       .  A
C1069      C1074   1.425       .  A
C1070      C1071   1.411       .  A
C1070      C1075   1.452       .  S
C1071      C1072   1.409       .  A
C1071      C1078   1.453       .  S
C1072      C1073   1.411       .  A
C1073      C1074   1.411       .  A
C1073      C1076   1.452       .  S
C1074      C1077   1.453       .  S
C1075      N1082   1.158       .  T
C1076      N1081   1.158       .  T
C1077      N1079   1.157       .  T
C1078      N3384   1.157       .  T
N1080      C3382   1.156   1_455  T
C1083      C1084   1.416       .  A
C1083      C1088   1.413   1_545  A
C1084      C1085   1.415       .  A
C1084      C1089   1.450       .  S
C1085      C1086   1.413       .  A
C1085      C1092   1.450       .  S
C1086      C1087   1.418       .  A
C1087      C1088   1.407   1_545  A
C1087      C1090   1.453   1_545  S
C1088      C1091   1.454       .  S
C1089      N1096   1.157       .  T
C1090      N1095   1.157       .  T
C1091      N1093   1.158       .  T
C1092      N1094   1.158       .  T
C1097      C1098   1.421       .  A
C1097      C1102   1.419       .  A
C1098      C1099   1.415       .  A
C1098      C1103   1.452       .  S
C1099      C1100   1.417       .  A
C1099      C1106   1.451       .  S
C1100      C1168   1.492       .  S
C1100      C1101   1.408       .  A
C1101      C1102   1.397       .  A
C1101      C1104   1.451       .  S
C1102      C1105   1.449       .  S
C1103      N1110   1.157       .  T
C1104      N2261   1.155       .  T
C1105      N1107   1.155       .  T
C1106      N1108   1.158       .  T
N1109      C2256   1.156       .  T
C1111      C1112   1.425       .  A
C1111      C1116   1.422       .  A
C1112      C3417   1.402   1_455  A
C1112      C3421   1.456       .  S
C1113      C1114   1.414       .  A
C1113      C3416   1.402       .  A
C1113      C1120   1.458       .  S
C1114      C3419   1.412       .  A
C1115      C1116   1.430   1_655  A
C1115      C3418   1.413       .  A
C1115      C1118   1.448       .  S
C1116      C1119   1.447       .  S
C1117      C3416   1.455       .  S
C1117      N1124   1.158       .  T
C1118      N1123   1.157       .  T
C1119      N1121   1.158       .  T
C1120      N1122   1.158       .  T
C1125      C1126   1.410       .  A
C1125      C2282   1.413   1_545  A
C1126      C2279   1.414       .  A
C1126      C1131   1.450       .  S
C1127      C1128   1.407       .  A
C1127      C2278   1.413       .  A
C1127      C2286   1.446       .  S
C1128      C1129   1.407       .  A
C1129      C1130   1.417       .  A
C1129      C1132   1.444       .  S
C1130      C2277   1.411       .  A
C1130      C1133   1.446       .  S
C1131      N1138   1.158       .  T
C1132      N1137   1.157       .  T
C1133      N1135   1.157       .  T
C1134      C2279   1.450       .  S
C1134      N1136   1.157       .  T
C1139      C2326   1.491   1_455  S
C1139      C1140   1.418       .  A
C1139      C1144   1.415       .  A
C1140      C1141   1.399       .  A
C1140      C1145   1.455   1_455  S
C1141      C1142   1.411       .  A
C1141      C1148   1.454       .  S
C1142      C1143   1.416       .  A
C1143      C1144   1.422       .  A
C1143      C1146   1.447       .  S
C1144      C1147   1.450       .  S
C1145      N3456   1.156   1_545  T
C1146      N1151   1.157       .  T
C1147      N1149   1.157       .  T
C1148      N1150   1.156       .  T
N1152      C3449   1.156   1_565  T
Fe1153     O1169   2.055       .  S
Fe1153     O1159   2.029       .  S
Fe1153     O1166   2.033       .  S
Fe1153     O1158   2.065       .  S
Fe1153     O1164   1.926       .  S
Fe1154     O1157   2.053       .  S
Fe1154     O1161   2.063       .  S
Fe1154     O1165   2.079       .  S
Fe1154     O1170   2.019       .  S
Fe1154     O1164   1.965       .  S
Fe1155     O1173   2.066       .  S
Fe1155     O1160   2.109       .  S
Fe1155     O1167   2.127       .  S
Fe1155     O1156   2.090       .  S
Fe1155     O1164   1.963       .  S
O1156      C1163   1.269       .  A
O1157      C1171   1.265       .  A
O1158      C1163   1.266       .  A
O1159      C1162   1.267       .  A
O1160      C1172   1.281       .  A
O1161      C1174   1.268       .  A
C1162      O1167   1.281       .  A
C1162      C2266   1.491       .  S
C1163      C2277   1.488       .  S
O1165      C1168   1.269       .  A
O1166      C1168   1.266       .  A
O1169      C1174   1.267       .  A
O1170      C1172   1.265       .  A
C1171      O1173   1.270       .  A
C1171      C2221   1.502       .  S
C1172      C2238   1.478       .  S
C1174      C4595   1.486       .  S
Fe1175     O1191   2.092       .  S
Fe1175     O1181   2.053       .  S
Fe1175     O1188   2.081       .  S
Fe1175     O1180   2.070       .  S
Fe1175     O1186   1.960       .  S
Fe1176     O1179   2.052       .  S
Fe1176     O1183   2.026       .  S
Fe1176     O1187   2.055       .  S
Fe1176     O1192   2.047       .  S
Fe1176     O1186   1.925       .  S
Fe1177     O1195   2.114       .  S
Fe1177     O1182   2.129       .  S
Fe1177     O1189   2.098       .  S
Fe1177     O1178   2.070       .  S
Fe1177     O1186   1.951       .  S
O1178      C1185   1.270       .  A
O1179      C1193   1.271       .  A
O1180      C1185   1.270       .  A
O1181      C1184   1.271       .  A
O1182      C1194   1.274       .  A
O1183      C1196   1.258       .  A
C1184      O1189   1.281       .  A
C1184      C2151   1.481       .  S
C1185      C2165   1.495       .  S
O1187      C1190   1.274       .  A
O1188      C1190   1.274       .  A
C1190      C4486   1.484   1_455  S
O1191      C1196   1.268       .  A
O1192      C1194   1.255       .  A
C1193      O1195   1.279       .  A
C1193      C2210   1.484       .  S
C1194      C2263   1.511       .  S
C1196      C2196   1.482       .  S
Fe1197     O1213   2.060       .  S
Fe1197     O1203   2.046       .  S
Fe1197     O1210   2.033       .  S
Fe1197     O1202   2.072       .  S
Fe1197     O1208   1.968       .  S
Fe1198     O1201   2.079       .  S
Fe1198     O1205   2.059       .  S
Fe1198     O1209   2.098       .  S
Fe1198     O1214   2.039       .  S
Fe1198     O1208   1.982       .  S
Fe1199     O1217   2.072       .  S
Fe1199     O1204   2.080       .  S
Fe1199     O1211   2.110       .  S
Fe1199     O1200   2.089       .  S
Fe1199     O1208   1.991       .  S
O1200      C1207   1.269       .  A
O1201      C1215   1.273       .  A
O1202      C1207   1.269       .  A
O1203      C1206   1.266       .  A
O1204      C1216   1.273       .  A
O1205      C1218   1.265       .  A
C1206      O1211   1.275       .  A
C1206      C2123   1.491       .  S
C1207      C2137   1.493       .  S
O1209      C1212   1.275       .  A
O1210      C1212   1.264       .  A
C1212      C4413   1.505   1_455  S
O1213      C1218   1.268       .  A
O1214      C1216   1.264       .  A
C1215      O1217   1.272       .  A
C1215      C2095   1.503       .  S
C1216      C2081   1.487       .  S
Fe1219     O1235   2.087       .  S
Fe1219     O1225   2.068       .  S
Fe1219     O1232   2.094       .  S
Fe1219     O1224   2.046       .  S
Fe1219     O1230   1.986       .  S
Fe1220     O1223   2.029       .  S
Fe1220     O1227   2.048       .  S
Fe1220     O1231   2.033       .  S
Fe1220     O1236   2.049       .  S
Fe1220     O1230   1.961       .  S
Fe1221     O1239   2.104       .  S
Fe1221     O1226   2.090       .  S
Fe1221     O1233   2.066       .  S
Fe1221     O1222   2.082       .  S
Fe1221     O1230   1.994       .  S
O1222      C1229   1.272       .  A
O1223      C1237   1.264       .  A
O1224      C1229   1.268       .  A
O1225      C1228   1.271       .  A
O1226      C1238   1.269       .  A
O1227      C1240   1.266       .  A
C1228      O1233   1.270       .  A
C1228      C2039   1.504       .  S
C1229      C2053   1.487       .  S
O1231      C1234   1.265       .  A
O1232      C1234   1.273       .  A
O1235      C1240   1.270       .  A
O1236      C1238   1.263       .  A
C1237      O1239   1.275       .  A
C1237      C2207   1.489       .  S
C1238      C2126   1.484       .  S
C1240      C2294   1.487       .  S
Fe1241     O1257   2.082       .  S
Fe1241     O1247   2.061       .  S
Fe1241     O1254   2.067       .  S
Fe1241     O1246   2.060       .  S
Fe1241     O1252   1.982       .  S
Fe1242     O1245   2.046       .  S
Fe1242     O1249   2.037       .  S
Fe1242     O1253   2.031       .  S
Fe1242     O1258   2.052       .  S
Fe1242     O1252   1.968       .  S
Fe1243     O1261   2.105       .  S
Fe1243     O1248   2.106       .  S
Fe1243     O1255   2.066       .  S
Fe1243     O1244   2.070       .  S
Fe1243     O1252   1.985       .  S
O1244      C1251   1.272       .  A
O1245      C1259   1.265       .  A
O1246      C1251   1.269       .  A
O1247      C1250   1.268       .  A
O1248      C1260   1.272       .  A
O1249      C1262   1.264       .  A
C1250      O1255   1.271       .  A
C1250      C2014   1.494       .  S
C1251      C1997   1.501       .  S
O1253      C1256   1.263       .  A
O1254      C1256   1.267       .  A
C1256      C2249   1.493       .  S
O1257      C1262   1.271       .  A
O1258      C1260   1.265       .  A
C1259      O1261   1.274       .  A
C1259      C2140   1.489       .  S
C1260      C2028   1.494       .  S
C1262      C4371   1.500       .  S
Fe1263     O1279   2.070       .  S
Fe1263     O1269   2.075       .  S
Fe1263     O1276   2.080       .  S
Fe1263     O1268   2.051       .  S
Fe1263     O1274   1.983       .  S
Fe1264     O1267   2.056       .  S
Fe1264     O1271   2.045       .  S
Fe1264     O1275   2.052       .  S
Fe1264     O1280   2.057       .  S
Fe1264     O1274   1.970       .  S
Fe1265     O1283   2.106       .  S
Fe1265     O1270   2.102       .  S
Fe1265     O1277   2.084       .  S
Fe1265     O1266   2.074       .  S
Fe1265     O1274   1.990       .  S
O1266      C1273   1.271       .  A
O1267      C1281   1.268       .  A
O1268      C1273   1.265       .  A
O1269      C1272   1.272       .  A
O1270      C1282   1.272       .  A
O1271      C1284   1.264       .  A
C1272      O1277   1.275       .  A
C1272      C1983   1.501       .  S
C1273      C1969   1.484       .  S
O1275      C1278   1.269       .  A
O1276      C1278   1.271       .  A
C1278      C2112   1.504       .  S
O1279      C1284   1.268       .  A
O1280      C1282   1.265       .  A
C1281      O1283   1.274       .  A
C1281      C2280   1.492       .  S
C1282      C2025   1.494       .  S
Fe1285     O1301   2.076       .  S
Fe1285     O1291   2.045       .  S
Fe1285     O1298   2.077       .  S
Fe1285     O1290   2.052       .  S
Fe1285     O1296   1.981       .  S
Fe1286     O1289   2.033       .  S
Fe1286     O1293   2.062       .  S
Fe1286     O1297   2.041       .  S
Fe1286     O1302   2.063       .  S
Fe1286     O1296   1.957       .  S
Fe1287     O1299   2.073       .  S
Fe1287     O1288   2.102       .  S
O1288      C1295   1.281       .  A
O1289      C1303   1.265       .  A
O1292      C1304   1.270       .  A
O1293      C1306   1.272       .  A
C1294      O1299   1.266       .  A
C1294      C2235   1.484       .  S
C1295      C2056   1.481       .  S
O1297      C1300   1.262       .  A
O1298      C1300   1.266       .  A
C1300      C1944   1.495       .  S
O1301      C1306   1.272       .  A
O1302      C1304   1.269       .  A
C1303      O1305   1.275       .  A
C1303      C1927   1.495       .  S
C1304      C1955   1.487       .  S
C1306      C1913   1.493       .  S
Fe1307     O1323   2.064       .  S
Fe1307     O1313   2.047       .  S
Fe1307     O1320   2.048       .  S
Fe1307     O1312   2.071       .  S
Fe1307     O1318   1.961       .  S
Fe1308     O1311   2.054       .  S
Fe1308     O1315   2.071       .  S
Fe1308     O1319   2.076       .  S
Fe1308     O1324   2.063       .  S
Fe1308     O1318   1.979       .  S
Fe1309     O1327   2.090       .  S
Fe1309     O1314   2.062       .  S
Fe1309     O1321   2.081       .  S
Fe1309     O1310   2.101       .  S
Fe1309     O1318   1.993       .  S
O1310      C1317   1.277       .  A
O1311      C1325   1.272       .  A
O1312      C1317   1.275       .  A
O1313      C1316   1.262       .  A
O1314      C1326   1.264       .  A
O1315      C1328   1.268       .  A
C1316      O1321   1.266       .  A
C1316      C1958   1.483       .  S
C1317      C1888   1.504       .  S
O1319      C1322   1.270       .  A
O1320      C1322   1.268       .  A
C1322      C1874   1.484       .  S
O1323      C1328   1.269       .  A
O1324      C1326   1.265       .  A
C1325      O1327   1.279       .  A
C1325      C1857   1.495       .  S
C1326      C1846   1.479       .  S
C1328      C1899   1.500       .  S
Fe1329     O1345   2.111       .  S
Fe1329     O1335   2.024       .  S
Fe1329     O1342   2.060       .  S
Fe1329     O1334   2.080       .  S
Fe1329     O1340   1.953       .  S
Fe1330     O1333   2.066       .  S
Fe1330     O1337   2.028       .  S
Fe1330     O1341   2.083       .  S
Fe1330     O1346   2.026       .  S
Fe1330     O1340   1.923       .  S
Fe1331     O3653   2.096       .  S
Fe1331     O1336   2.126       .  S
Fe1331     O1343   2.114       .  S
Fe1331     O1332   2.059       .  S
Fe1331     O3644   1.983       .  S
O1332      C1339   1.266       .  A
O1333      C1347   1.268       .  A
O1334      C3643   1.272   1_455  A
O1335      C3642   1.266   1_455  A
O1336      C3652   1.281       .  A
O1337      C1350   1.266       .  A
C1338      O3639   1.264       .  A
C1338      O1343   1.283       .  A
C1338      C2011   1.493       .  S
C1339      O3638   1.266       .  A
C1339      C2224   1.481       .  S
O1340     Fe3635   1.957       .  S
O1341      C1344   1.270       .  A
O1342      C1344   1.264       .  A
C1344      C1815   1.477       .  S
O1345      C1350   1.275       .  A
O1346      C1348   1.265       .  A
C1347      O1349   1.269       .  A
C1347      C1885   1.492       .  S
C1348      O3640   1.287       .  A
C1348      C1832   1.530       .  S
O1349     Fe3635   2.089       .  S
C1350      C1941   1.487       .  S
Fe1351     O1367   2.041       .  S
Fe1351     O1357   2.042       .  S
Fe1351     O1364   2.073       .  S
Fe1351     O1356   2.028       .  S
Fe1351     O1362   1.976       .  S
Fe1352     O1355   2.053       .  S
Fe1352     O1359   2.065       .  S
Fe1352     O1363   2.050       .  S
Fe1352     O1368   2.052       .  S
Fe1352     O1362   1.958       .  S
Fe1353     O1371   2.091       .  S
Fe1353     O1358   2.109       .  S
Fe1353     O1365   2.107       .  S
Fe1353     O1354   2.087       .  S
Fe1353     O1362   1.989       .  S
O1354      C1361   1.269       .  A
O1355      C1369   1.266       .  A
O1356      C1361   1.257       .  A
O1357      C1360   1.270       .  A
O1358      C1370   1.278       .  A
O1359      C1372   1.266       .  A
C1360      O1365   1.281       .  A
C1360      C1776   1.485       .  S
C1361      C1759   1.504       .  S
O1363      C1366   1.269       .  A
O1364      C1366   1.272       .  A
C1366      C1871   1.479       .  S
O1367      C1372   1.260       .  A
O1368      C1370   1.270       .  A
C1369      O1371   1.271       .  A
C1369      C1801   1.488       .  S
C1370      C1829   1.505       .  S
C1372      C1790   1.490       .  S
Fe1373     O1389   2.099   1_554  S
Fe1373     O1379   2.020       .  S
Fe1373     O1386   2.058   1_554  S
Fe1373     O1378   2.050       .  S
Fe1373     O1384   1.988       .  S
Fe1374     O1377   2.029       .  S
Fe1374     O1381   2.027       .  S
Fe1374     O1385   2.040       .  S
Fe1374     O1390   2.008       .  S
Fe1374     O1384   1.953       .  S
Fe1375     O1393   2.116       .  S
Fe1375     O1380   2.135       .  S
Fe1375     O1387   2.098       .  S
Fe1375     O1376   2.091       .  S
Fe1375     O1384   1.986       .  S
O1376      C1383   1.277       .  A
O1377      C1391   1.260       .  A
O1378      C1383   1.269       .  A
O1379      C1382   1.262       .  A
O1380      C1392   1.280       .  A
O1381      C1394   1.261       .  A
C1382      O1387   1.276       .  A
C1382      C1717   1.478       .  S
C1383      C1731   1.495       .  S
O1385      C1388   1.263       .  A
O1386      C1388   1.261   1_556  A
C1388      C1787   1.467       .  S
O1389      C1394   1.272   1_556  A
O1390      C1392   1.258       .  A
C1391      O1393   1.277       .  A
C1391      C1930   1.514       .  S
C1392      C1745   1.524       .  S
C1394      C1902   1.482       .  S
Fe1395     O1411   2.061       .  S
Fe1395     O1401   2.048       .  S
Fe1395     O1408   2.042       .  S
Fe1395     O1400   2.070       .  S
Fe1395     O1406   1.954       .  S
Fe1396     O1399   2.038       .  S
Fe1396     O1403   2.079       .  S
Fe1396     O1407   2.065       .  S
Fe1396     O1412   2.066       .  S
Fe1396     O1406   1.974       .  S
Fe1397     O1415   2.079       .  S
Fe1397     O1402   2.082       .  S
Fe1397     O1409   2.110       .  S
Fe1397     O1398   2.091       .  S
Fe1397     O1406   1.987       .  S
O1398      C1405   1.270       .  A
O1399      C1413   1.261       .  A
O1400      C1405   1.267       .  A
O1401      C1404   1.269       .  A
O1402      C1414   1.278       .  A
O1403      C1416   1.274       .  A
C1404      O1409   1.278       .  A
C1404      C1748   1.501       .  S
C1405      C1804   1.496       .  S
O1407      C1410   1.263       .  A
O1408      C1410   1.263       .  A
C1410      C1818   1.492       .  S
O1411      C1416   1.271       .  A
O1412      C1414   1.274       .  A
C1413      O1415   1.267       .  A
C1413      C2000   1.492       .  S
C1414      C2042   1.478       .  S
C1416      C1916   1.495       .  S
Fe1417     O1433   2.065       .  S
Fe1417     O1423   2.038       .  S
Fe1417     O1430   2.032       .  S
Fe1417     O1422   2.065       .  S
Fe1417     O1428   1.965       .  S
Fe1418     O1421   2.059       .  S
Fe1418     O1425   2.065       .  S
Fe1418     O1429   2.080       .  S
Fe1418     O1434   2.047       .  S
Fe1418     O1428   1.983       .  S
Fe1419     O1437   2.086       .  S
Fe1419     O1424   2.090       .  S
Fe1419     O1431   2.118       .  S
Fe1419     O1420   2.106       .  S
Fe1419     O1428   1.986       .  S
O1420      C1427   1.275       .  A
O1421      C1435   1.269       .  A
O1422      C1427   1.271       .  A
O1423      C1426   1.261       .  A
O1424      C1436   1.273       .  A
O1425      C1438   1.269       .  A
C1426      O1431   1.276       .  A
C1426      C1703   1.497       .  S
C1427      C1675   1.493       .  S
O1429      C1432   1.268       .  A
O1430      C1432   1.262       .  A
C1432      C1661   1.494       .  S
O1433      C1438   1.270       .  A
O1434      C1436   1.266       .  A
C1435      O1437   1.275       .  A
C1435      C1762   1.481       .  S
C1436      C1720   1.490       .  S
C1438      C1689   1.483       .  S
Fe1439     O1455   2.074       .  S
Fe1439     O1445   2.079       .  S
Fe1439     O1452   2.093       .  S
Fe1439     O1444   2.060       .  S
Fe1439     O1450   1.957       .  S
Fe1440     O1443   2.034       .  S
Fe1440     O1447   2.055       .  S
Fe1440     O1451   2.033       .  S
Fe1440     O1456   2.079       .  S
Fe1440     O1450   1.925       .  S
Fe1441     O1459   2.112       .  S
Fe1441     O1446   2.084   1_455  S
Fe1441     O1453   2.070       .  S
Fe1441     O1442   2.085       .  S
Fe1441     O3754   1.986   1_455  S
O1442      C1449   1.274       .  A
O1443      C1457   1.261       .  A
O1444      C3753   1.270       .  A
O1445      C3752   1.274       .  A
O1446      C3762   1.269       .  A
O1447      C1460   1.267       .  A
C1448      O3749   1.269   1_455  A
C1448      O1453   1.271       .  A
C1448      C2084   1.475       .  S
C1449      O3748   1.271   1_455  A
C1449      C2168   1.498       .  S
O1450     Fe3745   1.963       .  S
O1451      C1454   1.266       .  A
O1452      C1454   1.273       .  A
C1454      C1619   1.480       .  S
O1455      C1460   1.269       .  A
O1456      C1458   1.270       .  A
C1457      O3763   1.278       .  A
C1457      C1647   1.487       .  S
C1458      O3750   1.268       .  A
C1458      C1706   1.489       .  S
O1459      C3761   1.274   1_455  A
C1460      C1636   1.487       .  S
Fe1461     O1477   2.063       .  S
Fe1461     O1467   2.066       .  S
Fe1461     O1474   2.087       .  S
Fe1461     O1466   2.033       .  S
Fe1461     O1472   1.982       .  S
Fe1462     O1465   2.028       .  S
Fe1462     O1469   2.058       .  S
Fe1462     O1473   2.026       .  S
Fe1462     O1478   2.046       .  S
Fe1462     O1472   1.959       .  S
Fe1463     O1481   2.121       .  S
Fe1463     O1468   2.102       .  S
Fe1463     O1475   2.063       .  S
Fe1463     O1464   2.104       .  S
Fe1463     O1472   1.982       .  S
O1464      C1471   1.278       .  A
O1465      C1479   1.257       .  A
O1466      C1471   1.264       .  A
O1467      C1470   1.270       .  A
O1468      C1480   1.276       .  A
O1469      C1482   1.270       .  A
C1470      O1475   1.270       .  A
C1470      C1843   1.491       .  S
C1471      C1734   1.502       .  S
O1473      C1476   1.259       .  A
O1474      C1476   1.267       .  A
C1476      C1591   1.497       .  S
O1477      C1482   1.268       .  A
O1478      C1480   1.268       .  A
C1479      O1481   1.275       .  A
C1479      C1650   1.508       .  S
C1480      C1605   1.483       .  S
C1482      C1692   1.475       .  S
Fe1483     O1499   2.090       .  S
Fe1483     O1489   2.059       .  S
Fe1483     O1496   2.084       .  S
Fe1483     O1488   2.068       .  S
Fe1483     O1494   1.982       .  S
Fe1484     O1487   2.035       .  S
Fe1484     O1491   2.035       .  S
Fe1484     O1495   2.025       .  S
Fe1484     O1500   2.042       .  S
Fe1484     O1494   1.968       .  S
Fe1485     O1503   2.109       .  S
Fe1485     O1490   2.101       .  S
Fe1485     O1497   2.076       .  S
Fe1485     O1486   2.083       .  S
Fe1485     O1494   1.989       .  S
O1486      C1493   1.274       .  A
O1487      C1501   1.260       .  A
O1488      C1493   1.270       .  A
O1489      C1492   1.270       .  A
O1490      C1502   1.274       .  A
O1491      C1504   1.265       .  A
C1492      O1497   1.272       .  A
C1492      C1773   1.488       .  S
C1493      C1860   1.503       .  S
O1495      C1498   1.259       .  A
O1496      C1498   1.268       .  A
C1498      C1664   1.503       .  S
O1499      C1504   1.273       .  A
O1500      C1502   1.266       .  A
C1501      O1503   1.272       .  A
C1501      C1566   1.489       .  S
C1502      C1577   1.485       .  S
C1504      C1594   1.507       .  S
Fe1505     O1521   2.093       .  S
Fe1505     O1511   2.080       .  S
Fe1505     O1518   2.078       .  S
Fe1505     O1510   2.071       .  S
Fe1505     O1516   1.972       .  S
Fe1506     O1509   2.049       .  S
Fe1506     O1513   2.032       .  S
Fe1506     O1517   2.057       .  S
Fe1506     O1522   2.034       .  S
Fe1506     O1516   1.955       .  S
Fe1507     O1525   2.104       .  S
Fe1507     O1512   2.134       .  S
Fe1507     O1519   2.092       .  S
Fe1507     O1508   2.085       .  S
O1508      C1515   1.276       .  A
O1509      C1523   1.263       .  A
O1513      C1526   1.263       .  A
C1514      O1519   1.276       .  A
C1514      C1986   1.506       .  S
C1515      C2098   1.513       .  S
O1517      C1520   1.267       .  A
O1518      C1520   1.270       .  A
C1520      C1552   1.496       .  S
O1521      C1526   1.273       .  A
O1522      C1524   1.264       .  A
C1523      C1678   1.488       .  S
C1524      C1580   1.485       .  S
C1526      C1622   1.479       .  S
Fe1527     O1543   2.047       .  S
Fe1527     O1533   2.049       .  S
Fe1527     O1540   2.044       .  S
Fe1527     O1532   2.061       .  S
Fe1527     O1538   1.970       .  S
Fe1528     O1531   2.068       .  S
Fe1528     O1535   2.077       .  S
Fe1528     O1539   2.090       .  S
Fe1528     O1544   2.061       .  S
Fe1528     O1538   1.980       .  S
Fe1529     O1547   2.075       .  S
Fe1529     O1534   2.077       .  S
Fe1529     O1541   2.105       .  S
Fe1529     O1530   2.089       .  S
Fe1529     O1538   1.989       .  S
O1530      C1537   1.271       .  A
O1531      C1545   1.271       .  A
O1532      C1537   1.267       .  A
O1533      C1536   1.265       .  A
O1534      C1546   1.270       .  A
O1535      C1548   1.269       .  A
C1536      O1541   1.273       .  A
C1536      C1608   1.491       .  S
C1537      C1563   1.489       .  S
O1539      C1542   1.273       .  A
O1540      C1542   1.266       .  A
C1542      C1549   1.506       .  S
O1543      C1548   1.265       .  A
O1544      C1546   1.268       .  A
C1545      O1547   1.273       .  A
C1545      C1972   1.490       .  S
C1546      C2154   1.505       .  S
C1548      C1633   1.501       .  S
C1549      C1550   1.422       .  A
C1549      C1554   1.422       .  A
C1550      C1551   1.408       .  A
C1550      C1555   1.452       .  S
C1551      C1552   1.414       .  A
C1551      C1558   1.454       .  S
C1552      C1553   1.415       .  A
C1553      C1554   1.418       .  A
C1553      C1556   1.451       .  S
C1554      C1557   1.451       .  S
C1555      N1562   1.156       .  T
C1556      N1561   1.157       .  T
C1557      N1559   1.158       .  T
C1558      N1560   1.157       .  T
C1563      C1564   1.415       .  A
C1563      C1568   1.408       .  A
C1564      C1565   1.416       .  A
C1564      C1569   1.451       .  S
C1565      C1566   1.410       .  A
C1565      C1572   1.447       .  S
C1566      C1567   1.412       .  A
C1567      C1568   1.414       .  A
C1567      C1570   1.449       .  S
C1568      C1571   1.446       .  S
C1569      N1576   1.157       .  T
C1570      N1575   1.156       .  T
C1571      N1573   1.156       .  T
C1572      N1574   1.156       .  T
C1577      C1578   1.407       .  A
C1577      C1582   1.411       .  A
C1578      C1579   1.416       .  A
C1578      C1583   1.446       .  S
C1579      C1580   1.415       .  A
C1579      C1586   1.450       .  S
C1580      C1581   1.411       .  A
C1581      C1582   1.411       .  A
C1583      N1590   1.156       .  T
C1584      N1589   1.156       .  T
C1585      N1587   1.157       .  T
C1586      N1588   1.157       .  T
C1591      C1592   1.414       .  A
C1591      C1596   1.412       .  A
C1592      C1593   1.405       .  A
C1592      C1597   1.453       .  S
C1593      C1594   1.423       .  A
C1593      C1600   1.454       .  S
C1594      C1595   1.423       .  A
C1595      C1596   1.419       .  A
C1595      C1598   1.449       .  S
C1596      C1599   1.449       .  S
C1597      N1604   1.156       .  T
C1598      N1603   1.158   1_556  T
C1599      N1601   1.157   1_556  T
C1600      N1602   1.157       .  T
C1605      C1606   1.412       .  A
C1605      C1610   1.407       .  A
C1606      C1607   1.415       .  A
C1606      C1611   1.450       .  S
C1607      C1608   1.408       .  A
C1607      C1614   1.445       .  S
C1608      C1609   1.414       .  A
C1609      C1610   1.414       .  A
C1609      C1612   1.448       .  S
C1610      C1613   1.450       .  S
C1611      N1618   1.158       .  T
C1612      N1617   1.157       .  T
C1613      N1615   1.157       .  T
C1614      N1616   1.156       .  T
C1619      C1620   1.414       .  A
C1619      C1624   1.414       .  A
C1620      C1621   1.400       .  A
C1620      C1625   1.456       .  S
C1621      C1622   1.415       .  A
C1621      C1628   1.456       .  S
C1622      C1623   1.411       .  A
C1623      C1624   1.417       .  A
C1623      C1626   1.449       .  S
C1624      C1627   1.449       .  S
C1625      N1632   1.158       .  T
C1626      N1631   1.157       .  T
C1627      N1629   1.157       .  T
C1628      N1630   1.157       .  T
C1633      C1634   1.423       .  A
C1633      C1638   1.420       .  A
C1634      C1635   1.418       .  A
C1634      C1639   1.451       .  S
C1635      C1636   1.411       .  A
C1635      C1642   1.450       .  S
C1636      C1637   1.409       .  A
C1637      C1638   1.404       .  A
C1637      C1640   1.453       .  S
C1638      C1641   1.450       .  S
C1639      N1646   1.157       .  T
C1640      N1645   1.156       .  T
C1641      N1643   1.157       .  T
C1642      N1644   1.157       .  T
C1647      C1648   1.415       .  A
C1647      C1652   1.399       .  A
C1648      C1649   1.429       .  A
C1648      C3957   1.447       .  S
C1649      C1650   1.420       .  A
C1649      C1656   1.447       .  S
C1650      C1651   1.424       .  A
C1651      C1652   1.400       .  A
C1651      C1654   1.450       .  S
C1652      C1655   1.450       .  S
C1653      C3952   1.448       .  S
C1653      N1660   1.157   1_655  T
C1654      N1659   1.157       .  T
C1655      N1657   1.155       .  T
C1656      N3962   1.157       .  T
N1658      C3960   1.157       .  T
C1661      C1662   1.412       .  A
C1661      C1666   1.412       .  A
C1662      C1663   1.403       .  A
C1662      C1667   1.454       .  S
C1663      C1664   1.424       .  A
C1663      C1670   1.455       .  S
C1664      C1665   1.423       .  A
C1665      C1666   1.418       .  A
C1665      C1668   1.450       .  S
C1666      C1669   1.450       .  S
C1667      N1674   1.156       .  T
C1668      N1673   1.158   1_556  T
C1669      N1671   1.157   1_556  T
C1670      N1672   1.157       .  T
C1675      C1676   1.406       .  A
C1675      C1680   1.413       .  A
C1676      C1677   1.415       .  A
C1676      C1681   1.447       .  S
C1677      C1678   1.415       .  A
C1678      C1679   1.407       .  A
C1679      C1680   1.416       .  A
C1679      C1682   1.446       .  S
C1680      C1683   1.445       .  S
C1681      N1688   1.157       .  T
C1682      N1687   1.157       .  T
C1683      N1685   1.156       .  T
C1684      N1686   1.157       .  T
C1689      C1690   1.412       .  A
C1689      C1694   1.417       .  A
C1690      C1691   1.409       .  A
C1690      C1695   1.448       .  S
C1691      C1692   1.408       .  A
C1691      C1698   1.449       .  S
C1692      C1693   1.407       .  A
C1693      C1694   1.407       .  A
C1693      C1696   1.452       .  S
C1694      C1697   1.448       .  S
C1695      N1702   1.157       .  T
C1696      N1701   1.157       .  T
C1697      N1699   1.156       .  T
C1698      N1700   1.158       .  T
C1703      C1704   1.418       .  A
C1703      C1708   1.417       .  A
C1704      C1705   1.405       .  A
C1704      C1709   1.448       .  S
C1705      C1706   1.403       .  A
C1705      C1712   1.449       .  S
C1706      C1707   1.411       .  A
C1707      C1708   1.423       .  A
C1707      C4014   1.447       .  S
C1708      C1711   1.445       .  S
C1709      N1716   1.156       .  T
C1710      C4011   1.447   1_455  S
C1710      N1715   1.157       .  T
C1711      N4017   1.157       .  T
C1712      N1714   1.157       .  T
N1713      C4015   1.157   1_455  T
C1717      C1718   1.410   1_554  A
C1717      C1722   1.413       .  A
C1718      C1723   1.449       .  S
C1719      C1720   1.414       .  A
C1719      C1726   1.452       .  S
C1720      C1721   1.417       .  A
C1721      C1724   1.449       .  S
C1722      C1725   1.450       .  S
C1723      N1730   1.155       .  T
C1724      N1729   1.158       .  T
C1725      N1727   1.157       .  T
C1726      N1728   1.156       .  T
C1731      C1732   1.421   1_554  A
C1731      C1736   1.411       .  A
C1732      C1733   1.414       .  A
C1732      C1737   1.452       .  S
C1733      C1734   1.413       .  A
C1733      C1740   1.451       .  S
C1734      C1735   1.424   1_556  A
C1735      C1736   1.412       .  A
C1735      C1738   1.453       .  S
C1736      C1739   1.452       .  S
C1737      N1744   1.158       .  T
C1738      N1743   1.158       .  T
C1739      N1741   1.157       .  T
C1740      N1742   1.157       .  T
C1745      C1746   1.424       .  A
C1745      C1750   1.432       .  A
C1746      C1747   1.428       .  A
C1746      C1751   1.449       .  S
C1747      C1748   1.415       .  A
C1747      C1754   1.448       .  S
C1748      C1749   1.413       .  A
C1749      C1750   1.407       .  A
C1749      C1752   1.457       .  S
C1750      C1753   1.455       .  S
C1751      N1758   1.158       .  T
C1752      N1757   1.157       .  T
C1753      N1755   1.156       .  T
C1754      N1756   1.156       .  T
C1759      C1760   1.428   1_554  A
C1759      C1764   1.420       .  A
C1760      C4065   1.409   1_455  A
C1760      C1765   1.453       .  S
C1761      C4064   1.408       .  A
C1761      C1762   1.402       .  A
C1761      C1768   1.449       .  S
C1762      C1763   1.410   1_556  A
C1763      C4068   1.414       .  A
C1763      C1766   1.449       .  S
C1764      C4067   1.414   1_455  A
C1764      C1767   1.451       .  S
C1765      N1772   1.158       .  T
C1766      N1771   1.157       .  T
C1767      N1769   1.157       .  T
C1768      N1770   1.156       .  T
C1773      C1774   1.418       .  A
C1773      C1778   1.412       .  A
C1774      C1775   1.417       .  A
C1774      C1779   1.450       .  S
C1775      C1776   1.410   1_556  A
C1775      C1782   1.449   1_556  S
C1776      C1777   1.413       .  A
C1777      C1778   1.405   1_554  A
C1777      C1780   1.448       .  S
C1778      C1781   1.453       .  S
C1779      N1786   1.157       .  T
C1780      N1785   1.155       .  T
C1781      N1783   1.157       .  T
C1782      N1784   1.157       .  T
C1787      C1788   1.398   1_554  A
C1787      C1792   1.404       .  A
C1788      C1789   1.408       .  A
C1788      C1793   1.447       .  S
C1789      C1790   1.425   1_556  A
C1789      C1796   1.451       .  S
C1790      C1791   1.416       .  A
C1791      C1792   1.406       .  A
C1791      C1794   1.447       .  S
C1792      C1795   1.452       .  S
C1793      N1800   1.157       .  T
C1794      N1799   1.156       .  T
C1795      N1797   1.157       .  T
C1796      N1798   1.158       .  T
C1801      C1802   1.410       .  A
C1801      C1806   1.408       .  A
C1802      C1803   1.413       .  A
C1802      C1807   1.450       .  S
C1803      C1804   1.412       .  A
C1803      C1810   1.443       .  S
C1804      C1805   1.414       .  A
C1805      C1806   1.413       .  A
C1805      C1808   1.449       .  S
C1806      C1809   1.445       .  S
C1807      N1814   1.157       .  T
C1808      N1813   1.157       .  T
C1809      N1811   1.157       .  T
C1810      N1812   1.157       .  T
C1815      C1816   1.407       .  A
C1815      C1820   1.405       .  A
C1816      C1817   1.414       .  A
C1816      C1821   1.446       .  S
C1817      C1818   1.418       .  A
C1817      C1824   1.449       .  S
C1818      C1819   1.414       .  A
C1819      C1820   1.404       .  A
C1819      C1822   1.449       .  S
C1820      C1823   1.445       .  S
C1821      N1828   1.156       .  T
C1822      N1827   1.156       .  T
C1823      N1825   1.155       .  T
C1824      N1826   1.157       .  T
C1829      C1830   1.412       .  A
C1829      C1834   1.414       .  A
C1830      C1831   1.408       .  A
C1830      C1835   1.458       .  S
C1831      C1832   1.435       .  A
C1831      C1838   1.456       .  S
C1832      C1833   1.428       .  A
C1833      C1834   1.429       .  A
C1833      C4140   1.449       .  S
C1834      C1837   1.449       .  S
C1835      N1842   1.158       .  T
C1836      C4137   1.448       .  S
C1836      N1841   1.158       .  T
C1837      N4143   1.157       .  T
C1838      N1840   1.158       .  T
N1839      C4141   1.157       .  T
C1843      C1844   1.419   1_556  A
C1843      C1848   1.418       .  A
C1844      C4149   1.411       .  A
C1844      C1849   1.451       .  S
C1845      C4148   1.413   1_455  A
C1845      C1846   1.407       .  A
C1845      C1852   1.450       .  S
C1846      C1847   1.410       .  A
C1847      C4152   1.410   1_454  A
C1847      C1850   1.452       .  S
C1848      C4151   1.409   1_556  A
C1848      C1851   1.452       .  S
C1849      N1856   1.157   1_554  T
C1850      N1855   1.157       .  T
C1851      N1853   1.157       .  T
C1852      N1854   1.157       .  T
C1857      C1858   1.416   1_554  A
C1857      C1862   1.411       .  A
C1858      C1859   1.413       .  A
C1858      C1863   1.453       .  S
C1859      C1866   1.452       .  S
C1860      C1861   1.420   1_556  A
C1861      C1864   1.452       .  S
C1862      C1865   1.453       .  S
C1863      N1870   1.157       .  T
C1864      N1869   1.158       .  T
C1865      N1867   1.157       .  T
C1866      N1868   1.158       .  T
C1871      C1872   1.412       .  A
C1871      C1876   1.412       .  A
C1872      C1873   1.415       .  A
C1872      C1877   1.449       .  S
C1873      C1874   1.412       .  A
C1873      C1880   1.447       .  S
C1874      C1875   1.414       .  A
C1875      C1876   1.402       .  A
C1875      C1878   1.451       .  S
C1876      C1879   1.455       .  S
C1877      N1884   1.157       .  T
C1878      N1883   1.156       .  T
C1879      N1881   1.157       .  T
C1880      N1882   1.156       .  T
C1885      C1886   1.413       .  A
C1885      C1890   1.407       .  A
C1886      C1887   1.424       .  A
C1886      C1891   1.447       .  S
C1887      C1888   1.419       .  A
C1887      C1894   1.447       .  S
C1888      C1889   1.415       .  A
C1889      C1890   1.405       .  A
C1889      C1892   1.447       .  S
C1890      C4197   1.451       .  S
C1891      N1898   1.157       .  T
C1892      N1897   1.154       .  T
C1893      C4194   1.451       .  S
C1893      N1895   1.156       .  T
C1894      N1896   1.157       .  T
C1899      C1900   1.416       .  A
C1899      C1904   1.425   1_554  A
C1900      C1901   1.407       .  A
C1900      C1905   1.446       .  S
C1901      C1902   1.410       .  A
C1901      C1908   1.454       .  S
C1902      C1903   1.404   1_554  A
C1903      C1904   1.415       .  A
C1903      C1906   1.447       .  S
C1904      C1907   1.451       .  S
C1905      N1912   1.155       .  T
C1906      N1911   1.156       .  T
C1907      N1909   1.157       .  T
C1908      N1910   1.158       .  T
C1913      C1914   1.415       .  A
C1913      C1918   1.413       .  A
C1914      C1915   1.415       .  A
C1914      C1919   1.450       .  S
C1915      C1916   1.418       .  A
C1915      C1922   1.450       .  S
C1916      C1917   1.416       .  A
C1917      C1918   1.408       .  A
C1917      C1920   1.452       .  S
C1918      C1921   1.451       .  S
C1919      N1926   1.157       .  T
C1920      N1925   1.157       .  T
C1921      N1923   1.156       .  T
C1922      N1924   1.157       .  T
C1927      C1928   1.413       .  A
C1927      C1932   1.413       .  A
C1928      C1929   1.425       .  A
C1929      C1930   1.422       .  A
C1929      C1936   1.449       .  S
C1930      C1931   1.429       .  A
C1931      C1932   1.405       .  A
C1931      C1934   1.454       .  S
C1932      C1935   1.458       .  S
C1933      N1940   1.157       .  T
C1934      N1939   1.157       .  T
C1935      N1937   1.157       .  T
C1941      C1942   1.403       .  A
C1941      C1946   1.407       .  A
C1942      C1943   1.401       .  A
C1942      C1947   1.448       .  S
C1943      C1944   1.418       .  A
C1943      C1950   1.447       .  S
C1944      C1945   1.421       .  A
C1945      C1946   1.417       .  A
C1945      C1948   1.448       .  S
C1946      C1949   1.446       .  S
C1947      N1954   1.156       .  T
C1948      N1953   1.157       .  T
C1949      N1951   1.157       .  T
C1950      N1952   1.155       .  T
C1955      C1956   1.407       .  A
C1955      C1960   1.413       .  A
C1956      C1957   1.409       .  A
C1956      C1961   1.445       .  S
C1957      C1958   1.409       .  A
C1957      C1964   1.446       .  S
C1958      C1959   1.409       .  A
C1959      C1960   1.412       .  A
C1959      C1962   1.447       .  S
C1961      N1968   1.156       .  T
C1963      N1965   1.158       .  T
C1964      N1966   1.157       .  T
C1969      C1970   1.414       .  A
C1969      C1974   1.411       .  A
C1970      C1971   1.411       .  A
C1970      C1975   1.452       .  S
C1971      C1972   1.416       .  A
C1971      C1978   1.452       .  S
C1972      C1973   1.416       .  A
C1973      C1974   1.411       .  A
C1973      C1976   1.447       .  S
C1974      C1977   1.453       .  S
C1975      N1982   1.158       .  T
C1976      N1981   1.156       .  T
C1977      N1979   1.157       .  T
C1978      N1980   1.157       .  T
C1983      C1984   1.414       .  A
C1983      C1988   1.417       .  A
C1984      C1985   1.414       .  A
C1984      C1989   1.451       .  S
C1985      C1986   1.419       .  A
C1985      C1992   1.450   1_565  S
C1986      C1987   1.419       .  A
C1987      C1988   1.418       .  A
C1987      C1990   1.452       .  S
C1988      C1991   1.451       .  S
C1989      N1996   1.157       .  T
C1990      N1995   1.157       .  T
C1991      N1993   1.158       .  T
C1997      C1998   1.417       .  A
C1997      C2002   1.424       .  A
C1998      C1999   1.410       .  A
C1998      C2003   1.453       .  S
C1999      C2000   1.417       .  A
C1999      C2006   1.454       .  S
C2000      C2001   1.409       .  A
C2001      C2002   1.413       .  A
C2001      C2004   1.451       .  S
C2002      C2005   1.449       .  S
C2003      N2010   1.157       .  T
C2004      N2009   1.157       .  T
C2005      N2007   1.157       .  T
C2006      N2008   1.158       .  T
C2011      C2012   1.409       .  A
C2011      C2016   1.423       .  A
C2012      C2013   1.414       .  A
C2012      C2017   1.450       .  S
C2013      C2014   1.421       .  A
C2013      C2020   1.448       .  S
C2014      C2015   1.414       .  A
C2015      C2016   1.406       .  A
C2015      C2018   1.454       .  S
C2016      C4323   1.455       .  S
C2017      N2024   1.157       .  T
C2018      N4327   1.157       .  T
C2019      C4320   1.454       .  S
C2019      N2021   1.158   1_655  T
C2020      N2022   1.156       .  T
N2023      C4322   1.158       .  T
C2025      C2026   1.410       .  A
C2025      C2030   1.415       .  A
C2026      C2027   1.415       .  A
C2026      C2031   1.446       .  S
C2027      C2028   1.412       .  A
C2027      C2034   1.451       .  S
C2028      C2029   1.408       .  A
C2029      C2030   1.419       .  A
C2029      C2032   1.445       .  S
C2030      C2033   1.446       .  S
C2031      N2038   1.156       .  T
C2032      N2037   1.157       .  T
C2033      N2035   1.156       .  T
C2034      N2036   1.157       .  T
C2039      C2040   1.426       .  A
C2039      C2044   1.421       .  A
C2040      C2041   1.415       .  A
C2040      C2045   1.450       .  S
C2041      C2042   1.405       .  A
C2041      C2048   1.451       .  S
C2042      C2043   1.406       .  A
C2043      C2044   1.407       .  A
C2043      C2046   1.449       .  S
C2044      C2047   1.450       .  S
C2045      N2052   1.157       .  T
C2046      N2051   1.156       .  T
C2047      N2049   1.157       .  T
C2048      N2050   1.157       .  T
C2053      C2054   1.414       .  A
C2053      C2058   1.417       .  A
C2054      C2055   1.403       .  A
C2055      C2056   1.410       .  A
C2056      C2057   1.411       .  A
C2057      C2058   1.416       .  A
C2057      C2060   1.448       .  S
C2058      C2061   1.448       .  S
C2059      N2066   1.157   1_545  T
C2060      N2065   1.157       .  T
C2061      N2063   1.157       .  T
C2062      N2064   1.156       .  T
C2067      C3566   1.498   1_455  S
C2067      C2068   1.419       .  A
C2067      C2072   1.417       .  A
C2068      C2069   1.418       .  A
C2068      C2073   1.451       .  S
C2069      C2070   1.418       .  A
C2069      C2076   1.450       .  S
C2070      C2071   1.417       .  A
C2071      C2072   1.405       .  A
C2071      C2074   1.452       .  S
C2072      C2075   1.452       .  S
C2073      N4384   1.157       .  T
C2074      N2079   1.156       .  T
C2075      N2077   1.156       .  T
N2080      C4377   1.157       .  T
C2081      C2082   1.416       .  A
C2081      C2086   1.418       .  A
C2082      C2083   1.412       .  A
C2082      C2087   1.453       .  S
C2083      C2084   1.409       .  A
C2083      C2090   1.449       .  S
C2084      C2085   1.408       .  A
C2085      C2086   1.406       .  A
C2085      C2088   1.454   1_455  S
C2086      C2089   1.451       .  S
C2087      N2094   1.156       .  T
C2088      N2093   1.155       .  T
C2089      N2091   1.159   1_455  T
C2090      N4396   1.159       .  T
N2092      C4394   1.158       .  T
C2095      C2096   1.415       .  A
C2095      C2100   1.418       .  A
C2096      C2097   1.415       .  A
C2096      C2101   1.453       .  S
C2097      C2098   1.422       .  A
C2097      C2104   1.449       .  S
C2098      C2099   1.421       .  A
C2099      C2100   1.418       .  A
C2099      C2102   1.451       .  S
C2100      C2103   1.452       .  S
C2101      N2108   1.157       .  T
C2103      N2105   1.158       .  T
C2104      N2106   1.156       .  T
C2109      C3516   1.506       .  S
C2109      C2110   1.423       .  A
C2109      C2114   1.419       .  A
C2110      C2111   1.408       .  A
C2110      C2115   1.453       .  S
C2111      C2112   1.416       .  A
C2111      C2118   1.454       .  S
C2112      C2113   1.420       .  A
C2113      C2114   1.418       .  A
C2113      C2116   1.450       .  S
C2114      C4421   1.451       .  S
C2115      N2122   1.157       .  T
C2116      N2121   1.157       .  T
C2117      C4418   1.450       .  S
C2117      N2119   1.157       .  T
C2118      N2120   1.157       .  T
C2123      C2128   1.409       .  A
C2124      C2125   1.411       .  A
C2124      C2129   1.451       .  S
C2125      C2126   1.409       .  A
C2125      C2132   1.449       .  S
C2127      C2128   1.419   1_545  A
C2127      C2130   1.450   1_545  S
C2128      C2131   1.445       .  S
C2129      N2136   1.157       .  T
C2130      N2135   1.157       .  T
C2131      N2133   1.157       .  T
C2132      N2134   1.157       .  T
C2137      C4442   1.412   1_455  A
C2137      C2142   1.409       .  A
C2138      C4441   1.414       .  A
C2138      C2139   1.415       .  A
C2138      C2143   1.447       .  S
C2139      C2140   1.406       .  A
C2139      C2146   1.446       .  S
C2140      C4445   1.414       .  A
C2141      C4444   1.414   1_455  A
C2141      C2142   1.416       .  A
C2141      C2144   1.452       .  S
C2142      C2145   1.445       .  S
C2143      N2150   1.155       .  T
C2144      N2149   1.157       .  T
C2145      N2147   1.156       .  T
C2146      N2148   1.156       .  T
C2151      C2152   1.406       .  A
C2151      C2156   1.411       .  A
C2152      C2153   1.415       .  A
C2152      C2157   1.452       .  S
C2153      C2154   1.424       .  A
C2153      C2160   1.448       .  S
C2154      C2155   1.421       .  A
C2155      C2156   1.411       .  A
C2155      C2158   1.453       .  S
C2156      C2159   1.452       .  S
C2157      N2164   1.157       .  T
C2158      N2163   1.158       .  T
C2159      N2161   1.157       .  T
C2160      N2162   1.157       .  T
C2165      C2166   1.414       .  A
C2165      C2170   1.415       .  A
C2166      C2167   1.414       .  A
C2166      C2171   1.452       .  S
C2167      C2168   1.419       .  A
C2167      C2174   1.451       .  S
C2168      C2169   1.416       .  A
C2169      C2170   1.413       .  A
C2169      C4476   1.451       .  S
C2170      C2173   1.451       .  S
C2171      N2178   1.158       .  T
C2172      C4473   1.452       .  S
C2172      N2177   1.158       .  T
C2173      N2175   1.156       .  T
C2174      N2176   1.157       .  T
C2179      C2180   1.422       .  A
C2179      C2184   1.415       .  A
C2180      C2181   1.409       .  A
C2181      C2182   1.404       .  A
C2181      C4492   1.450       .  S
C2182      C3494   1.472       .  S
C2182      C2183   1.404       .  A
C2183      C2184   1.407       .  A
C2183      C2186   1.453       .  S
C2184      C2187   1.441       .  S
C2185      N2192   1.157       .  T
C2186      N2191   1.157       .  T
C2187      N2189   1.154       .  T
C2188      C4485   1.450       .  S
C2188      N2190   1.157   1_655  T
C2193      C2194   1.426       .  A
C2193      C2198   1.418       .  A
C2194      C2195   1.419       .  A
C2194      C2199   1.450       .  S
C2195      C2196   1.407       .  A
C2195      C2202   1.448       .  S
C2196      C2197   1.408       .  A
C2197      C2198   1.400       .  A
C2197      C2200   1.448       .  S
C2199      N2206   1.158       .  T
C2200      N2205   1.155       .  T
C2201      N2203   1.157       .  T
C2202      N2204   1.157       .  T
C2207      C2208   1.414       .  A
C2207      C2212   1.409       .  A
C2208      C2209   1.405       .  A
C2208      C2213   1.446       .  S
C2209      C2210   1.408       .  A
C2209      C2216   1.452       .  S
C2210      C2211   1.414       .  A
C2211      C2212   1.418       .  A
C2211      C2214   1.446       .  S
C2212      C2215   1.448       .  S
C2213      N2220   1.155       .  T
C2214      N2219   1.157       .  T
C2215      N2217   1.157       .  T
C2216      N2218   1.157       .  T
C2221      C2222   1.427       .  A
C2221      C2226   1.422       .  A
C2222      C2223   1.410       .  A
C2222      C2227   1.452       .  S
C2223      C2224   1.407       .  A
C2223      C2230   1.452       .  S
C2224      C2225   1.408       .  A
C2225      C2226   1.410       .  A
C2225      C2228   1.449       .  S
C2226      C2229   1.453       .  S
C2227      N2234   1.158       .  T
C2228      N2233   1.157       .  T
C2229      N2231   1.157       .  T
C2230      N4536   1.157       .  T
N2232      C4534   1.156   1_455  T
C2235      C2236   1.416       .  A
C2235      C2240   1.414       .  A
C2236      C2237   1.414       .  A
C2236      C2241   1.450       .  S
C2237      C2238   1.411       .  A
C2237      C2244   1.450       .  S
C2238      C2239   1.414       .  A
C2239      C2240   1.403       .  A
C2239      C2242   1.453       .  S
C2240      C2243   1.454       .  S
C2241      N2248   1.157       .  T
C2242      N2247   1.156       .  T
C2243      N2245   1.158       .  T
C2244      N2246   1.158       .  T
C2249      C2250   1.420       .  A
C2249      C2254   1.419       .  A
C2250      C2251   1.415       .  A
C2250      C2255   1.451       .  S
C2251      C2252   1.416       .  A
C2251      C2258   1.451       .  S
C2252      C2253   1.417       .  A
C2253      C2254   1.399       .  A
C2253      C2256   1.453       .  S
C2254      C2257   1.454       .  S
C2255      N2262   1.157       .  T
C2257      N2259   1.157       .  T
C2258      N2260   1.157       .  T
C2263      C2264   1.426       .  A
C2263      C2268   1.422       .  A
C2264      C4569   1.402   1_455  A
C2264      C4573   1.455       .  S
C2265      C4568   1.403       .  A
C2265      C2266   1.408       .  A
C2265      C2272   1.459       .  S
C2266      C4571   1.413       .  A
C2267      C4570   1.412       .  A
C2267      C2268   1.429   1_655  A
C2267      C2270   1.448       .  S
C2268      C2271   1.447       .  S
C2269      C4568   1.452       .  S
C2269      N2276   1.157       .  T
C2270      N2275   1.157       .  T
C2271      N2273   1.157       .  T
C2272      N2274   1.158       .  T
C2277      C2278   1.411       .  A
C2278      C2283   1.448       .  S
C2279      C2280   1.411   1_545  A
C2280      C2281   1.407       .  A
C2281      C2282   1.418       .  A
C2281      C2284   1.446       .  S
C2282      C2285   1.446       .  S
C2283      N2290   1.157       .  T
C2284      N2289   1.157       .  T
C2285      N2287   1.156       .  T
C2286      N2288   1.158       .  T
C2291      C3478   1.491   1_455  S
C2291      C2292   1.413       .  A
C2291      C2296   1.416       .  A
C2292      C2293   1.400       .  A
C2292      C2297   1.453   1_455  S
C2293      C2294   1.413       .  A
C2293      C2300   1.453       .  S
C2294      C2295   1.416       .  A
C2295      C2296   1.421       .  A
C2295      C2298   1.447       .  S
C2296      C2299   1.450       .  S
C2297      N4608   1.156       .  T
C2298      N2303   1.157       .  T
C2299      N2301   1.157       .  T
C2300      N2302   1.156       .  T
N2304      C4601   1.156       .  T
Fe2305     O2321   2.034       .  S
Fe2305     O2311   2.018       .  S
Fe2305     O2318   2.032       .  S
Fe2305     O2310   2.081       .  S
Fe2305     O2316   1.902       .  S
Fe2306     O2309   2.071       .  S
Fe2306     O2313   2.084       .  S
Fe2306     O2317   2.094       .  S
Fe2306     O2322   2.027       .  S
Fe2306     O2316   1.948       .  S
Fe2307     O2325   2.068       .  S
Fe2307     O2312   2.116       .  S
Fe2307     O2319   2.157       .  S
Fe2307     O2308   2.081       .  S
Fe2307     O2316   1.955       .  S
O2308      C2315   1.267       .  A
O2309      C2323   1.272       .  A
O2310      C2315   1.268       .  A
O2311      C2314   1.258       .  A
O2312      C2324   1.282       .  A
O2313      C2326   1.269       .  A
C2314      O2319   1.284       .  A
C2314      C3418   1.497       .  S
C2315      C3429   1.489       .  S
O2317      C2320   1.275       .  A
O2318      C2320   1.271       .  A
C2320      C4556   1.499   1_545  S
O2321      C2326   1.262       .  A
O2322      C2324   1.265       .  A
C2323      O2325   1.273       .  A
C2323      C3373   1.505       .  S
C2324      C3390   1.487       .  S
Fe2327     O2343   2.101       .  S
Fe2327     O2333   2.048       .  S
Fe2327     O2340   2.081       .  S
Fe2327     O2332   2.072       .  S
Fe2327     O2338   1.948       .  S
Fe2328     O2331   2.045       .  S
Fe2328     O2335   2.035       .  S
Fe2328     O2339   2.064       .  S
Fe2328     O2344   2.051       .  S
Fe2328     O2338   1.928       .  S
Fe2329     O2347   2.125       .  S
Fe2329     O2334   2.131       .  S
Fe2329     O2341   2.098       .  S
Fe2329     O2330   2.070       .  S
Fe2329     O2338   1.954       .  S
O2330      C2337   1.269       .  A
O2331      C2345   1.269       .  A
O2332      C2337   1.270       .  A
O2333      C2336   1.271       .  A
O2334      C2346   1.271       .  A
O2335      C2348   1.258       .  A
C2336      O2341   1.281       .  A
C2336      C3303   1.479       .  S
C2337      C3317   1.486       .  S
O2339      C2342   1.276       .  A
O2340      C2342   1.277       .  A
O2343      C2348   1.269       .  A
O2344      C2346   1.253       .  A
C2345      O2347   1.283       .  A
C2345      C3362   1.484       .  S
C2346      C3415   1.512       .  S
C2348      C3348   1.491       .  S
Fe2349     O2365   2.052       .  S
Fe2349     O2355   2.048       .  S
Fe2349     O2362   2.035       .  S
Fe2349     O2354   2.067       .  S
Fe2349     O2360   1.969       .  S
Fe2350     O2353   2.077       .  S
Fe2350     O2357   2.065       .  S
Fe2350     O2361   2.096       .  S
Fe2350     O2366   2.046       .  S
Fe2350     O2360   1.986       .  S
Fe2351     O2369   2.077       .  S
Fe2351     O2356   2.074       .  S
Fe2351     O2363   2.108       .  S
Fe2351     O2352   2.096       .  S
Fe2351     O2360   1.986       .  S
O2352      C2359   1.271       .  A
O2353      C2367   1.272       .  A
O2354      C2359   1.267       .  A
O2355      C2358   1.266       .  A
O2356      C2368   1.272       .  A
O2357      C2370   1.265       .  A
C2358      O2363   1.274       .  A
C2358      C3275   1.492       .  S
C2359      C3289   1.494       .  S
O2361      C2364   1.274       .  A
O2362      C2364   1.265       .  A
O2365      C2370   1.266       .  A
O2366      C2368   1.266       .  A
C2367      O2369   1.273       .  A
C2367      C3247   1.505       .  S
C2368      C3233   1.490       .  S
C2370      C4497   1.501       .  S
Fe2371     O2387   2.087       .  S
Fe2371     O2377   2.047       .  S
Fe2371     O2384   2.073       .  S
Fe2371     O2376   2.048       .  S
Fe2371     O2382   1.983       .  S
Fe2372     O2375   2.043       .  S
Fe2372     O2379   2.064       .  S
Fe2372     O2383   2.045       .  S
Fe2372     O2388   2.056       .  S
Fe2372     O2382   1.962       .  S
Fe2373     O2391   2.105       .  S
Fe2373     O2378   2.089       .  S
Fe2373     O2385   2.073       .  S
Fe2373     O2374   2.081       .  S
Fe2373     O2382   1.995       .  S
O2374      C2381   1.274       .  A
O2375      C2389   1.268       .  A
O2376      C2381   1.268       .  A
O2377      C2380   1.266       .  A
O2378      C2390   1.268       .  A
O2379      C2392   1.270       .  A
C2380      O2385   1.270       .  A
C2380      C3191   1.498       .  S
C2381      C3205   1.492       .  S
O2383      C2386   1.267       .  A
O2384      C2386   1.268       .  A
C2386      C4374   1.500   1_545  S
O2387      C2392   1.271       .  A
O2388      C2390   1.264       .  A
C2389      O2391   1.276       .  A
C2389      C3359   1.490       .  S
C2390      C3278   1.486       .  S
C2392      C3446   1.493       .  S
Fe2393     O2409   2.081       .  S
Fe2393     O2399   2.070       .  S
Fe2393     O2406   2.080       .  S
Fe2393     O2398   2.054       .  S
Fe2393     O2404   1.981       .  S
Fe2394     O2397   2.042       .  S
Fe2394     O2401   2.041       .  S
Fe2394     O2405   2.030       .  S
Fe2394     O2410   2.049       .  S
Fe2394     O2404   1.967       .  S
Fe2395     O2413   2.122       .  S
Fe2395     O2400   2.099       .  S
Fe2395     O2407   2.068       .  S
Fe2395     O2396   2.091       .  S
Fe2395     O2404   1.988       .  S
O2396      C2403   1.276       .  A
O2397      C2411   1.265       .  A
O2398      C2403   1.267       .  A
O2399      C2402   1.270       .  A
O2400      C2412   1.271       .  A
O2401      C2414   1.264       .  A
C2402      O2407   1.271       .  A
C2402      C3166   1.495       .  S
C2403      C3149   1.507       .  S
O2405      C2408   1.263       .  A
O2406      C2408   1.270       .  A
C2408      C3401   1.500       .  S
O2409      C2414   1.270       .  A
O2410      C2412   1.263       .  A
C2411      O2413   1.278       .  A
C2411      C3292   1.495       .  S
C2412      C3180   1.490       .  S
Fe2415     O2431   2.055       .  S
Fe2415     O2421   2.076       .  S
Fe2415     O2428   2.086       .  S
Fe2415     O2420   2.040       .  S
Fe2415     O2426   1.981       .  S
Fe2416     O2419   2.054       .  S
Fe2416     O2423   2.056       .  S
Fe2416     O2427   2.048       .  S
Fe2416     O2432   2.068       .  S
Fe2416     O2426   1.969       .  S
Fe2417     O2435   2.109       .  S
Fe2417     O2422   2.096       .  S
Fe2417     O2429   2.085       .  S
Fe2417     O2418   2.088       .  S
Fe2417     O2426   1.987       .  S
O2418      C2425   1.273       .  A
O2419      C2433   1.268       .  A
O2420      C2425   1.262       .  A
O2421      C2424   1.273       .  A
O2422      C2434   1.271       .  A
O2423      C2436   1.266       .  A
C2424      O2429   1.274       .  A
C2424      C3135   1.502       .  S
C2425      C3121   1.490       .  S
O2427      C2430   1.269       .  A
O2428      C2430   1.273       .  A
C2430      C3264   1.506       .  S
O2431      C2436   1.264       .  A
O2432      C2434   1.267       .  A
C2433      O2435   1.275       .  A
C2433      C3432   1.493       .  S
C2434      C3177   1.495       .  S
C2436      C4483   1.488       .  S
Fe2437     O2453   2.069       .  S
Fe2437     O2443   2.030       .  S
Fe2437     O2450   2.057       .  S
Fe2437     O2442   2.046       .  S
Fe2437     O2448   1.978       .  S
Fe2438     O2441   2.034       .  S
Fe2438     O2445   2.071       .  S
Fe2438     O2449   2.047       .  S
Fe2438     O2454   2.068       .  S
Fe2438     O2448   1.957       .  S
Fe2439     O3609   2.114       .  S
Fe2439     O3596   2.087       .  S
Fe2439     O2451   2.072   1_565  S
Fe2439     O2440   2.099   1_565  S
Fe2439     O3600   1.994       .  S
O2440      C2447   1.280       .  A
O2441      C2455   1.266       .  A
O2442      C3599   1.271       .  A
O2443      C3598   1.260       .  A
O2444     Fe3591   2.085       .  S
O2444      C2456   1.269       .  A
O2445      C2458   1.273       .  A
C2446      O3595   1.264       .  A
C2446      O2451   1.267   1_565  A
C2446      C3387   1.488   1_565  S
C2447      O3594   1.270   1_545  A
C2447      C3208   1.483       .  S
O2448     Fe3591   1.993       .  S
O2449      C2452   1.263       .  A
O2450      C2452   1.262       .  A
C2452      C3096   1.489       .  S
O2453      C2458   1.270       .  A
O2454      C2456   1.270       .  A
C2455      O2457   1.275       .  A
C2455      C3079   1.489       .  S
C2456      C3107   1.490       .  S
O2457     Fe3591   2.100       .  S
C2458      C3065   1.494       .  S
Fe2459     O2475   2.055       .  S
Fe2459     O2465   2.066       .  S
Fe2459     O2472   2.074       .  S
Fe2459     O2464   2.063       .  S
Fe2459     O2470   1.953       .  S
Fe2460     O2463   2.050       .  S
Fe2460     O2467   2.079       .  S
Fe2460     O2471   2.071       .  S
Fe2460     O2476   2.065       .  S
Fe2460     O2470   1.976       .  S
Fe2461     O2479   2.099       .  S
Fe2461     O2466   2.071       .  S
Fe2461     O2473   2.089       .  S
Fe2461     O2462   2.103       .  S
Fe2461     O2470   1.985       .  S
O2462      C2469   1.280       .  A
O2463      C2477   1.274       .  A
O2464      C2469   1.274       .  A
O2465      C2468   1.266       .  A
O2466      C2478   1.264       .  A
O2467      C2480   1.267       .  A
C2468      O2473   1.266       .  A
C2468      C3110   1.496       .  S
C2469      C3040   1.503       .  S
O2471      C2474   1.271       .  A
O2472      C2474   1.274       .  A
C2474      C3026   1.494       .  S
O2475      C2480   1.267       .  A
O2476      C2478   1.264       .  A
C2477      O2479   1.284       .  A
C2477      C3009   1.503       .  S
C2478      C2998   1.487       .  S
C2480      C3051   1.502       .  S
Fe2481     O2497   2.106       .  S
Fe2481     O2487   2.027       .  S
Fe2481     O2494   2.067       .  S
Fe2481     O2486   2.072       .  S
Fe2481     O2492   1.938       .  S
Fe2482     O2485   2.071       .  S
Fe2482     O2489   2.020       .  S
Fe2482     O2493   2.071       .  S
Fe2482     O2498   2.024       .  S
Fe2482     O2492   1.910       .  S
Fe2483     O2488   2.155       .  S
Fe2483     O2495   2.126   1_455  S
Fe2483     O2484   2.068       .  S
O2484      C2491   1.271       .  A
O2485      C2499   1.270       .  A
O2489      C2502   1.267       .  A
C2490      O2495   1.285       .  A
C2490      C3163   1.494       .  S
C2491      C3376   1.491   1_455  S
O2493      C2496   1.266       .  A
O2494      C2496   1.263       .  A
C2496      C2967   1.473       .  S
O2497      C2502   1.277       .  A
O2498      C2500   1.262       .  A
C2499      O2501   1.269       .  A
C2499      C3037   1.493       .  S
C2500      C2984   1.521       .  S
C2502      C3093   1.477       .  S
Fe2503     O2519   2.047       .  S
Fe2503     O2509   2.054       .  S
Fe2503     O2516   2.090       .  S
Fe2503     O2508   2.033       .  S
Fe2503     O2514   1.971       .  S
Fe2504     O2507   2.046       .  S
Fe2504     O2511   2.059       .  S
Fe2504     O2515   2.049       .  S
Fe2504     O2520   2.049       .  S
Fe2504     O2514   1.959       .  S
Fe2505     O2523   2.092       .  S
Fe2505     O2510   2.105       .  S
Fe2505     O2517   2.093       .  S
Fe2505     O2506   2.090       .  S
Fe2505     O2514   1.989       .  S
O2506      C2513   1.270       .  A
O2507      C2521   1.263       .  A
O2508      C2513   1.259       .  A
O2509      C2512   1.273       .  A
O2510      C2522   1.277       .  A
O2511      C2524   1.263       .  A
C2512      O2517   1.278       .  A
C2512      C2928   1.481       .  S
C2513      C2911   1.503       .  S
O2515      C2518   1.269       .  A
O2516      C2518   1.276       .  A
C2518      C3023   1.487       .  S
O2519      C2524   1.261       .  A
O2520      C2522   1.269       .  A
C2521      O2523   1.272       .  A
C2521      C2953   1.485       .  S
C2522      C2981   1.505       .  S
C2524      C2942   1.488       .  S
Fe2525     O2541   2.087   1_554  S
Fe2525     O2531   2.029       .  S
Fe2525     O2538   2.061   1_554  S
Fe2525     O2530   2.045       .  S
Fe2525     O2536   1.990       .  S
Fe2526     O2529   2.017       .  S
Fe2526     O2533   2.047       .  S
Fe2526     O2537   2.036       .  S
Fe2526     O2542   2.030       .  S
Fe2526     O2536   1.960       .  S
Fe2527     O2545   2.120       .  S
Fe2527     O2532   2.107       .  S
Fe2527     O2539   2.078       .  S
Fe2527     O2528   2.096       .  S
Fe2527     O2536   1.991       .  S
O2528      C2535   1.277       .  A
O2529      C2543   1.258       .  A
O2530      C2535   1.267       .  A
O2531      C2534   1.263       .  A
O2532      C2544   1.276       .  A
O2533      C2546   1.265       .  A
C2534      O2539   1.272       .  A
C2534      C2869   1.472       .  S
C2535      C2883   1.497       .  S
O2537      C2540   1.262       .  A
O2538      C2540   1.263   1_556  A
C2540      C2939   1.467       .  S
O2541      C2546   1.269   1_556  A
O2542      C2544   1.263       .  A
C2543      O2545   1.277       .  A
C2543      C3082   1.515       .  S
C2544      C2897   1.509       .  S
C2546      C3054   1.483       .  S
Fe2547     O2563   2.066       .  S
Fe2547     O2553   2.049       .  S
Fe2547     O2560   2.051       .  S
Fe2547     O2552   2.067       .  S
Fe2547     O2558   1.961       .  S
Fe2548     O2551   2.041       .  S
Fe2548     O2555   2.075       .  S
Fe2548     O2559   2.059       .  S
Fe2548     O2564   2.053       .  S
Fe2548     O2558   1.972       .  S
Fe2549     O2567   2.082       .  S
Fe2549     O2554   2.076       .  S
Fe2549     O2561   2.103       .  S
Fe2549     O2550   2.092       .  S
Fe2549     O2558   1.986       .  S
O2550      C2557   1.271       .  A
O2551      C2565   1.261       .  A
O2552      C2557   1.268       .  A
O2553      C2556   1.269       .  A
O2554      C2566   1.276       .  A
O2555      C2568   1.273       .  A
C2556      O2561   1.277       .  A
C2556      C2900   1.494       .  S
C2557      C2956   1.496       .  S
O2559      C2562   1.262       .  A
O2560      C2562   1.263       .  A
C2562      C2970   1.495       .  S
O2563      C2568   1.273       .  A
O2564      C2566   1.272       .  A
C2565      O2567   1.269       .  A
C2565      C3152   1.497       .  S
C2566      C3194   1.470       .  S
C2568      C3068   1.496       .  S
Fe2569     O2585   2.060       .  S
Fe2569     O2575   2.030       .  S
Fe2569     O2582   2.037       .  S
Fe2569     O2574   2.066       .  S
Fe2569     O2580   1.970       .  S
Fe2570     O2573   2.068       .  S
Fe2570     O2577   2.054       .  S
Fe2570     O2581   2.084       .  S
Fe2570     O2586   2.036       .  S
Fe2570     O2580   1.982       .  S
Fe2571     O2589   2.096       .  S
Fe2571     O2576   2.087       .  S
Fe2571     O2583   2.114       .  S
Fe2571     O2572   2.111       .  S
Fe2571     O2580   1.986       .  S
O2572      C2579   1.277       .  A
O2573      C2587   1.271       .  A
O2574      C2579   1.271       .  A
O2575      C2578   1.259       .  A
O2576      C2588   1.271       .  A
O2577      C2590   1.266       .  A
C2578      O2583   1.275       .  A
C2578      C2855   1.491       .  S
C2579      C2827   1.498       .  S
O2581      C2584   1.270       .  A
O2582      C2584   1.262       .  A
C2584      C2813   1.499       .  S
O2585      C2590   1.268       .  A
O2586      C2588   1.262       .  A
C2587      O2589   1.279       .  A
C2587      C2914   1.488       .  S
C2588      C2872   1.490       .  S
C2590      C2841   1.475       .  S
Fe2591     O2607   2.070       .  S
Fe2591     O2597   2.073       .  S
Fe2591     O2604   2.092       .  S
Fe2591     O2596   2.059       .  S
Fe2591     O2602   1.952       .  S
Fe2592     O2595   2.031       .  S
Fe2592     O2599   2.063       .  S
Fe2592     O2603   2.021       .  S
Fe2592     O2608   2.078       .  S
Fe2592     O2602   1.917       .  S
Fe2593     O2611   2.130       .  S
Fe2593     O2598   2.081       .  S
Fe2593     O2605   2.059       .  S
Fe2593     O2594   2.094       .  S
O2594      C2601   1.276       .  A
O2595      C2609   1.261       .  A
O2599      C2612   1.269       .  A
C2600      O2605   1.272       .  A
C2600      C3236   1.473       .  S
C2601      C3320   1.503       .  S
O2603      C2606   1.262       .  A
O2604      C2606   1.272       .  A
C2606      C2771   1.477       .  S
O2607      C2612   1.269       .  A
O2608      C2610   1.271       .  A
C2609      C2799   1.488       .  S
C2610      C2858   1.488       .  S
C2612      C2788   1.483       .  S
Fe2613     O2629   2.047       .  S
Fe2613     O2619   2.082       .  S
Fe2613     O2626   2.101       .  S
Fe2613     O2618   2.032       .  S
Fe2613     O2624   1.989       .  S
Fe2614     O2617   2.021       .  S
Fe2614     O2621   2.059       .  S
Fe2614     O2625   2.020       .  S
Fe2614     O2630   2.059       .  S
Fe2614     O2624   1.957       .  S
Fe2615     O2633   2.129       .  S
Fe2615     O2620   2.097       .  S
Fe2615     O2627   2.061       .  S
Fe2615     O2616   2.111       .  S
Fe2615     O2624   1.982       .  S
O2616      C2623   1.279       .  A
O2617      C2631   1.257       .  A
O2618      C2623   1.264       .  A
O2619      C2622   1.272       .  A
O2620      C2632   1.274       .  A
O2621      C2634   1.270       .  A
C2622      O2627   1.270       .  A
C2622      C2995   1.495       .  S
C2623      C2886   1.499       .  S
O2625      C2628   1.260       .  A
O2626      C2628   1.271       .  A
C2628      C2743   1.502       .  S
O2629      C2634   1.263       .  A
O2630      C2632   1.269       .  A
C2631      O2633   1.277       .  A
C2631      C2802   1.513       .  S
C2632      C2757   1.486       .  S
C2634      C2844   1.464       .  S
Fe2635     O2651   2.095       .  S
Fe2635     O2641   2.058       .  S
Fe2635     O2648   2.082       .  S
Fe2635     O2640   2.059       .  S
Fe2635     O2646   1.981       .  S
Fe2636     O2639   2.043       .  S
Fe2636     O2643   2.042       .  S
Fe2636     O2647   2.031       .  S
Fe2636     O2652   2.053       .  S
Fe2636     O2646   1.967       .  S
Fe2637     O2655   2.111       .  S
Fe2637     O2642   2.106       .  S
Fe2637     O2649   2.073       .  S
Fe2637     O2638   2.077       .  S
Fe2637     O2646   1.989       .  S
O2638      C2645   1.272       .  A
O2639      C2653   1.264       .  A
O2640      C2645   1.270       .  A
O2641      C2644   1.269       .  A
O2642      C2654   1.274       .  A
O2643      C2656   1.264       .  A
C2644      O2649   1.272       .  A
C2644      C2925   1.489       .  S
C2645      C3012   1.495       .  S
O2647      C2650   1.263       .  A
O2648      C2650   1.270       .  A
C2650      C2816   1.502       .  S
O2651      C2656   1.272       .  A
O2652      C2654   1.265       .  A
C2653      O2655   1.274       .  A
C2653      C2718   1.493       .  S
C2654      C2729   1.493       .  S
C2656      C2746   1.510       .  S
Fe2657     O2673   2.080       .  S
Fe2657     O2663   2.072       .  S
Fe2657     O2670   2.081       .  S
Fe2657     O2662   2.067       .  S
Fe2657     O2668   1.965       .  S
Fe2658     O2661   2.054       .  S
Fe2658     O2665   2.040       .  S
Fe2658     O2669   2.058       .  S
Fe2658     O2674   2.036       .  S
Fe2658     O2668   1.949       .  S
Fe2659     O2677   2.113       .  S
Fe2659     O2664   2.112       .  S
Fe2659     O2671   2.089       .  S
Fe2659     O2660   2.087       .  S
Fe2659     O3820   1.986       .  S
O2660      C2667   1.272       .  A
O2661      C2675   1.260       .  A
O2662      C3819   1.270   1_545  A
O2663      C3818   1.273   1_545  A
O2664      C3828   1.276       .  A
O2665      C2678   1.267       .  A
C2666      O3815   1.275       .  A
C2666      O2671   1.277       .  A
C2666      C3138   1.515       .  S
C2667      O3814   1.269       .  A
C2667      C3250   1.507       .  S
O2668     Fe3811   1.963   1_545  S
O2669      C2672   1.265       .  A
O2670      C2672   1.270       .  A
C2672      C2704   1.494       .  S
O2673      C2678   1.271       .  A
O2674      C2676   1.268       .  A
C2675      O3829   1.271   1_545  A
C2675      C2830   1.494       .  S
C2676      O3816   1.284   1_545  A
C2676      C2732   1.494       .  S
O2677      C3827   1.274       .  A
C2678      C2774   1.476       .  S
Fe2679     O2695   2.047       .  S
Fe2679     O2685   2.054       .  S
Fe2679     O2692   2.048       .  S
Fe2679     O2684   2.059       .  S
Fe2679     O2690   1.971       .  S
Fe2680     O2683   2.059       .  S
Fe2680     O2687   2.077       .  S
Fe2680     O2691   2.087       .  S
Fe2680     O2696   2.055       .  S
Fe2680     O2690   1.982       .  S
Fe2681     O2699   2.087       .  S
Fe2681     O2686   2.080       .  S
Fe2681     O2693   2.107       .  S
Fe2681     O2682   2.104       .  S
Fe2681     O2690   1.993       .  S
O2682      C2689   1.273       .  A
O2683      C2697   1.269       .  A
O2684      C2689   1.265       .  A
O2685      C2688   1.267       .  A
O2686      C2698   1.272       .  A
O2687      C2700   1.269       .  A
C2688      O2693   1.275       .  A
C2688      C2760   1.493       .  S
C2689      C2715   1.495       .  S
O2691      C2694   1.272       .  A
O2692      C2694   1.268       .  A
C2694      C2701   1.502       .  S
O2695      C2700   1.265       .  A
O2696      C2698   1.269       .  A
C2697      O2699   1.274       .  A
C2697      C3124   1.492       .  S
C2698      C3306   1.500       .  S
C2700      C2785   1.500       .  S
C2701      C2702   1.416       .  A
C2701      C2706   1.419       .  A
C2702      C2703   1.407       .  A
C2702      C2707   1.452       .  S
C2703      C2704   1.416       .  A
C2703      C2710   1.452       .  S
C2704      C2705   1.415       .  A
C2705      C2706   1.419       .  A
C2705      C2708   1.451       .  S
C2706      C2709   1.450       .  S
C2707      N2714   1.156       .  T
C2708      N2713   1.158       .  T
C2709      N2711   1.157       .  T
C2710      N2712   1.156       .  T
C2715      C2716   1.416       .  A
C2715      C2720   1.411       .  A
C2716      C2717   1.419       .  A
C2716      C2721   1.449       .  S
C2717      C2718   1.407       .  A
C2717      C2724   1.445       .  S
C2718      C2719   1.412       .  A
C2719      C2720   1.415       .  A
C2719      C2722   1.451       .  S
C2720      C2723   1.446       .  S
C2721      N2728   1.157       .  T
C2722      N2727   1.157       .  T
C2723      N2725   1.156       .  T
C2724      N2726   1.156       .  T
C2729      C2730   1.410       .  A
C2729      C2734   1.416       .  A
C2730      C2731   1.415       .  A
C2730      C2735   1.445       .  S
C2731      C2732   1.413       .  A
C2731      C2738   1.451       .  S
C2732      C2733   1.408       .  A
C2733      C2734   1.418       .  A
C2733      C3888   1.444   1_545  S
C2734      C3889   1.450       .  S
C2735      N2742   1.156       .  T
C2736      C3885   1.446       .  S
C2736      N2741   1.156       .  T
C2737      C3886   1.451       .  S
C2737      N2739   1.158       .  T
C2738      N2740   1.157       .  T
C2743      C2744   1.413       .  A
C2743      C2748   1.413       .  A
C2744      C2745   1.405       .  A
C2744      C2749   1.454       .  S
C2745      C2746   1.425       .  A
C2745      C2752   1.453       .  S
C2746      C2747   1.423       .  A
C2747      C2748   1.422       .  A
C2747      C2750   1.449       .  S
C2748      C2751   1.449   1_556  S
C2749      N2756   1.156       .  T
C2750      N2755   1.157   1_556  T
C2751      N2753   1.157       .  T
C2752      N2754   1.157       .  T
C2757      C2758   1.413       .  A
C2757      C2762   1.409       .  A
C2758      C2759   1.418       .  A
C2758      C2763   1.449       .  S
C2759      C2760   1.408       .  A
C2759      C2766   1.445       .  S
C2760      C2761   1.412       .  A
C2761      C2762   1.413       .  A
C2761      C2764   1.448       .  S
C2762      C2765   1.450       .  S
C2763      N2770   1.157       .  T
C2764      N2769   1.156       .  T
C2765      N2767   1.157       .  T
C2766      N2768   1.157       .  T
C2771      C2772   1.416       .  A
C2771      C2776   1.412       .  A
C2772      C2773   1.398       .  A
C2772      C2777   1.456       .  S
C2773      C2774   1.413       .  A
C2773      C2780   1.456       .  S
C2774      C2775   1.414       .  A
C2775      C2776   1.414       .  A
C2775      C2778   1.450       .  S
C2776      C2779   1.450       .  S
C2777      N2784   1.157       .  T
C2778      N2783   1.157       .  T
C2779      N2781   1.158       .  T
C2780      N2782   1.158       .  T
C2785      C2786   1.423       .  A
C2785      C2790   1.420       .  A
C2786      C2787   1.417       .  A
C2786      C2791   1.450       .  S
C2787      C2788   1.411       .  A
C2787      C2794   1.450       .  S
C2788      C2789   1.406       .  A
C2789      C2790   1.403       .  A
C2789      C2792   1.451       .  S
C2790      C2793   1.449       .  S
C2791      N2798   1.157       .  T
C2792      N2797   1.156       .  T
C2793      N2795   1.156       .  T
C2794      N2796   1.157       .  T
C2799      C2800   1.415       .  A
C2799      C2804   1.401       .  A
C2800      C2801   1.427       .  A
C2801      C2802   1.420       .  A
C2801      C2808   1.447       .  S
C2802      C2803   1.427       .  A
C2803      C2804   1.404       .  A
C2803      C2806   1.450       .  S
C2804      C2807   1.451       .  S
C2805      N2812   1.157       .  T
C2806      N2811   1.157       .  T
C2807      N2809   1.156       .  T
C2813      C2814   1.420       .  A
C2813      C2818   1.417       .  A
C2814      C2815   1.405       .  A
C2814      C2819   1.454       .  S
C2815      C2816   1.418       .  A
C2815      C2822   1.456       .  S
C2816      C2817   1.419       .  A
C2817      C2818   1.417       .  A
C2817      C2820   1.450       .  S
C2818      C2821   1.450       .  S
C2819      N2826   1.157       .  T
C2820      N2825   1.157   1_556  T
C2821      N2823   1.157   1_556  T
C2822      N2824   1.157       .  T
C2827      C2828   1.410       .  A
C2827      C2832   1.411       .  A
C2828      C2829   1.420       .  A
C2828      C2833   1.446       .  S
C2829      C2830   1.416       .  A
C2829      C3988   1.449       .  S
C2830      C2831   1.410       .  A
C2831      C2832   1.414       .  A
C2831      C2834   1.445       .  S
C2832      C2835   1.446       .  S
C2833      N2840   1.158       .  T
C2834      N2839   1.156   1_545  T
C2835      N2837   1.155       .  T
C2836      C3981   1.449       .  S
C2836      N2838   1.158       .  T
C2841      C2842   1.413       .  A
C2841      C2846   1.416       .  A
C2842      C2843   1.407       .  A
C2842      C2847   1.447       .  S
C2843      C2844   1.404       .  A
C2843      C2850   1.451       .  S
C2844      C2845   1.403       .  A
C2845      C2846   1.403       .  A
C2845      C2848   1.449       .  S
C2846      C2849   1.449       .  S
C2847      N2854   1.157       .  T
C2848      N2853   1.156   1_556  T
C2849      N2851   1.155       .  T
C2850      N2852   1.157       .  T
C2855      C2856   1.416       .  A
C2855      C2860   1.416       .  A
C2856      C2857   1.405       .  A
C2856      C2861   1.449       .  S
C2857      C2858   1.405       .  A
C2857      C2864   1.450       .  S
C2858      C2859   1.410       .  A
C2859      C2860   1.422       .  A
C2860      C2863   1.446       .  S
C2861      N2868   1.156       .  T
C2862      N2867   1.157       .  T
C2864      N2866   1.158       .  T
C2869      C2870   1.410   1_554  A
C2869      C2874   1.413       .  A
C2870      C4023   1.395       .  A
C2870      C2875   1.448       .  S
C2871      C4022   1.401   1_546  A
C2871      C2872   1.415       .  A
C2871      C2878   1.451       .  S
C2872      C2873   1.417       .  A
C2873      C4026   1.418   1_546  A
C2873      C2876   1.449       .  S
C2874      C4025   1.414   1_554  A
C2874      C2877   1.450       .  S
C2875      N2882   1.155       .  T
C2876      N2881   1.157       .  T
C2877      N2879   1.157       .  T
C2878      N2880   1.156       .  T
C2883      C2884   1.421   1_554  A
C2883      C2888   1.412       .  A
C2884      C2885   1.414       .  A
C2884      C2889   1.453       .  S
C2885      C2886   1.412       .  A
C2885      C2892   1.451       .  S
C2886      C2887   1.424   1_556  A
C2887      C2888   1.414       .  A
C2887      C2890   1.453       .  S
C2888      C2891   1.452       .  S
C2889      N2896   1.157       .  T
C2890      N2895   1.157       .  T
C2891      N2893   1.158       .  T
C2892      N2894   1.158       .  T
C2897      C2898   1.421       .  A
C2897      C2902   1.423       .  A
C2898      C2899   1.424       .  A
C2898      C2903   1.450       .  S
C2899      C2900   1.415       .  A
C2899      C2906   1.449       .  S
C2900      C2901   1.412       .  A
C2901      C2902   1.405       .  A
C2901      C2904   1.455       .  S
C2902      C2905   1.453       .  S
C2903      N2910   1.158       .  T
C2904      N2909   1.157       .  T
C2905      N2907   1.156       .  T
C2906      N2908   1.156       .  T
C2911      C2912   1.425   1_554  A
C2911      C2916   1.420       .  A
C2912      C2917   1.452       .  S
C2913      C2914   1.402       .  A
C2913      C2920   1.447       .  S
C2914      C2915   1.410   1_556  A
C2915      C2918   1.449       .  S
C2916      C2919   1.450       .  S
C2917      N2924   1.158       .  T
C2918      N2923   1.157       .  T
C2919      N2921   1.157       .  T
C2920      N2922   1.155       .  T
C2925      C2926   1.419       .  A
C2925      C2930   1.414       .  A
C2926      C2927   1.416       .  A
C2926      C2931   1.450       .  S
C2927      C2928   1.408   1_556  A
C2927      C2934   1.450   1_556  S
C2928      C2929   1.410       .  A
C2929      C2930   1.404   1_554  A
C2929      C2932   1.447       .  S
C2930      C2933   1.453       .  S
C2931      N2938   1.158       .  T
C2932      N2937   1.154       .  T
C2933      N2935   1.157       .  T
C2934      N2936   1.157       .  T
C2939      C2940   1.402   1_554  A
C2939      C2944   1.405       .  A
C2940      C2941   1.406       .  A
C2940      C2945   1.447       .  S
C2941      C2942   1.421   1_556  A
C2941      C2948   1.453       .  S
C2942      C2943   1.417       .  A
C2943      C2944   1.408       .  A
C2943      C2946   1.447       .  S
C2944      C2947   1.453       .  S
C2945      N2952   1.155       .  T
C2946      N2951   1.156       .  T
C2947      N2949   1.158       .  T
C2948      N2950   1.157       .  T
C2953      C2954   1.409       .  A
C2953      C2958   1.412       .  A
C2954      C2955   1.409       .  A
C2954      C2959   1.451       .  S
C2955      C2956   1.411       .  A
C2955      C2962   1.442       .  S
C2956      C2957   1.413       .  A
C2957      C2958   1.415       .  A
C2957      C2960   1.450       .  S
C2958      C2961   1.445       .  S
C2959      N2966   1.157       .  T
C2960      N2965   1.157       .  T
C2961      N2963   1.157       .  T
C2962      N2964   1.156       .  T
C2967      C2968   1.403       .  A
C2967      C2972   1.403       .  A
C2968      C2969   1.412       .  A
C2968      C2973   1.448       .  S
C2969      C2970   1.423       .  A
C2969      C2976   1.449       .  S
C2970      C2971   1.418       .  A
C2971      C2972   1.406       .  A
C2971      C2974   1.448       .  S
C2972      C2975   1.448       .  S
C2973      N2980   1.157       .  T
C2974      N2979   1.156       .  T
C2975      N2977   1.156       .  T
C2976      N2978   1.157       .  T
C2981      C2982   1.415       .  A
C2981      C2986   1.416       .  A
C2982      C2983   1.407       .  A
C2982      C2987   1.458       .  S
C2983      C2984   1.431       .  A
C2983      C2990   1.456       .  S
C2984      C2985   1.423       .  A
C2985      C2986   1.427       .  A
C2986      C2989   1.449       .  S
C2987      N2994   1.158       .  T
C2988      N2993   1.157   1_455  T
C2990      N2992   1.158       .  T
C2995      C2996   1.419   1_556  A
C2995      C3000   1.417       .  A
C2996      C3001   1.451       .  S
C2997      C2998   1.409       .  A
C2997      C3004   1.449       .  S
C2998      C2999   1.411       .  A
C2999      C3002   1.452       .  S
C3000      C3003   1.452       .  S
C3001      N3008   1.157       .  T
C3002      N3007   1.157       .  T
C3003      N3005   1.158       .  T
C3004      N3006   1.157       .  T
C3009      C3010   1.425   1_554  A
C3009      C3014   1.418       .  A
C3010      C3011   1.411       .  A
C3010      C3015   1.453       .  S
C3011      C4164   1.410       .  A
C3011      C3018   1.453       .  S
C3012      C4163   1.414   1_545  A
C3012      C3013   1.419   1_556  A
C3013      C4166   1.412   1_545  A
C3013      C3016   1.452       .  S
C3014      C4165   1.415       .  A
C3014      C3017   1.452       .  S
C3015      N3022   1.158       .  T
C3016      N3021   1.158       .  T
C3017      N3019   1.157       .  T
C3018      N3020   1.157       .  T
C3023      C3024   1.412       .  A
C3023      C3028   1.416       .  A
C3024      C3025   1.418       .  A
C3024      C3029   1.450       .  S
C3025      C3026   1.416       .  A
C3025      C3032   1.446       .  S
C3026      C3027   1.415       .  A
C3027      C3028   1.406       .  A
C3027      C3030   1.453       .  S
C3028      C3031   1.454       .  S
C3029      N3036   1.157       .  T
C3030      N3035   1.157       .  T
C3031      N3033   1.157       .  T
C3032      N3034   1.156       .  T
C3037      C3038   1.413       .  A
C3037      C3042   1.408       .  A
C3038      C3039   1.422       .  A
C3038      C3043   1.448       .  S
C3039      C3040   1.419       .  A
C3039      C3046   1.447       .  S
C3040      C3041   1.418       .  A
C3041      C3042   1.404       .  A
C3041      C3044   1.449       .  S
C3043      N3050   1.156       .  T
C3044      N3049   1.154       .  T
C3045      N3047   1.156       .  T
C3046      N3048   1.158       .  T
C3051      C3052   1.416       .  A
C3051      C3056   1.425   1_554  A
C3052      C3053   1.406       .  A
C3052      C3057   1.445       .  S
C3053      C3054   1.406       .  A
C3053      C3060   1.452       .  S
C3054      C3055   1.403   1_554  A
C3055      C3056   1.416       .  A
C3055      C3058   1.446       .  S
C3056      C3059   1.449       .  S
C3057      N3064   1.155       .  T
C3058      N3063   1.157       .  T
C3059      N3061   1.157       .  T
C3060      N3062   1.157       .  T
C3065      C3066   1.416       .  A
C3065      C3070   1.412       .  A
C3066      C3067   1.416       .  A
C3066      C3071   1.449       .  S
C3067      C3068   1.417       .  A
C3067      C3074   1.450       .  S
C3068      C3069   1.415       .  A
C3069      C3070   1.407       .  A
C3069      C3072   1.450       .  S
C3070      C3073   1.451       .  S
C3071      N3078   1.157       .  T
C3072      N3077   1.156       .  T
C3073      N3075   1.156       .  T
C3074      N3076   1.157       .  T
C3079      C3080   1.412       .  A
C3079      C3084   1.410       .  A
C3080      C3081   1.424       .  A
C3080      C4237   1.450       .  S
C3081      C3082   1.423       .  A
C3081      C3088   1.449       .  S
C3082      C3083   1.431       .  A
C3083      C3084   1.405       .  A
C3083      C3086   1.455       .  S
C3084      C3087   1.457       .  S
C3085      C4232   1.449       .  S
C3085      N3092   1.158       .  T
C3086      N3091   1.157       .  T
C3087      N3089   1.157       .  T
C3088      N4242   1.157       .  T
N3090      C4240   1.158       .  T
C3093      C3094   1.405       .  A
C3093      C3098   1.404       .  A
C3094      C3095   1.401       .  A
C3094      C3099   1.447       .  S
C3095      C3096   1.414       .  A
C3095      C3102   1.447       .  S
C3096      C3097   1.421       .  A
C3097      C3098   1.412       .  A
C3097      C3100   1.448       .  S
C3098      C3101   1.447       .  S
C3099      N3106   1.155       .  T
C3100      N3105   1.157       .  T
C3101      N3103   1.156       .  T
C3102      N3104   1.155       .  T
C3107      C3108   1.406       .  A
C3107      C3112   1.413       .  A
C3108      C3109   1.414       .  A
C3108      C3113   1.447       .  S
C3109      C3110   1.413       .  A
C3109      C3116   1.444       .  S
C3110      C3111   1.408       .  A
C3111      C3112   1.415       .  A
C3111      C3114   1.446       .  S
C3112      C4267   1.448       .  S
C3113      N3120   1.157       .  T
C3114      N4271   1.157       .  T
C3115      C4264   1.448   1_545  S
C3115      N3117   1.158       .  T
C3116      N3118   1.157       .  T
N3119      C4266   1.157       .  T
C3121      C3122   1.418       .  A
C3121      C3126   1.411       .  A
C3122      C3123   1.410       .  A
C3122      C3127   1.451       .  S
C3123      C3124   1.413       .  A
C3123      C3130   1.452       .  S
C3124      C3125   1.416       .  A
C3125      C3126   1.414       .  A
C3125      C3128   1.446       .  S
C3126      C3129   1.452       .  S
C3127      N3134   1.157       .  T
C3128      N3133   1.156       .  T
C3129      N3131   1.157       .  T
C3130      N3132   1.157       .  T
C3135      C3136   1.414       .  A
C3135      C3140   1.415       .  A
C3136      C3137   1.418       .  A
C3136      C3141   1.451       .  S
C3137      C3138   1.424       .  A
C3137      C3144   1.451       .  S
C3138      C3139   1.423       .  A
C3139      C3140   1.417       .  A
C3139      C3142   1.452       .  S
C3140      C3143   1.452       .  S
C3141      N3148   1.157       .  T
C3142      N3147   1.157       .  T
C3143      N3145   1.158       .  T
C3144      N4298   1.158       .  T
N3146      C4296   1.158       .  T
C3149      C3150   1.418       .  A
C3149      C3154   1.427       .  A
C3150      C3151   1.414       .  A
C3150      C3155   1.453       .  S
C3151      C3152   1.420       .  A
C3151      C3158   1.453       .  S
C3152      C3153   1.408       .  A
C3153      C3154   1.414       .  A
C3153      C3156   1.451       .  S
C3154      C3157   1.450       .  S
C3155      N3162   1.157       .  T
C3156      N3161   1.157       .  T
C3157      N3159   1.158       .  T
C3158      N3160   1.158       .  T
C3163      C3164   1.410       .  A
C3163      C3168   1.422       .  A
C3164      C3165   1.415       .  A
C3164      C3169   1.451       .  S
C3165      C3166   1.420       .  A
C3165      C3172   1.447       .  S
C3166      C3167   1.413       .  A
C3167      C3168   1.408       .  A
C3167      C3170   1.453       .  S
C3169      N3176   1.158       .  T
C3171      N3173   1.157       .  T
C3172      N3174   1.156       .  T
C3177      C3178   1.412       .  A
C3177      C3182   1.414       .  A
C3178      C3179   1.417       .  A
C3178      C3183   1.446       .  S
C3179      C3180   1.412       .  A
C3179      C3186   1.452       .  S
C3180      C3181   1.408       .  A
C3181      C3182   1.417       .  A
C3181      C3184   1.446       .  S
C3182      C3185   1.448       .  S
C3183      N3190   1.156       .  T
C3184      N3189   1.157       .  T
C3185      N3187   1.156       .  T
C3186      N3188   1.157       .  T
C3191      C3192   1.424       .  A
C3191      C3196   1.422       .  A
C3192      C3193   1.413       .  A
C3192      C3197   1.449       .  S
C3193      C3194   1.405       .  A
C3193      C3200   1.452       .  S
C3194      C3195   1.404       .  A
C3195      C3196   1.403       .  A
C3195      C3198   1.450       .  S
C3196      C3199   1.451       .  S
C3197      N3204   1.157       .  T
C3198      N3203   1.156       .  T
C3199      N3201   1.157       .  T
C3200      N3202   1.157       .  T
C3205      C3206   1.418       .  A
C3205      C3210   1.417       .  A
C3206      C3207   1.407       .  A
C3206      C4363   1.453       .  S
C3207      C3208   1.412       .  A
C3207      C4366   1.451   1_545  S
C3208      C3209   1.409       .  A
C3209      C3210   1.414       .  A
C3209      C3212   1.448       .  S
C3210      C3213   1.449       .  S
C3211      C4358   1.452       .  S
C3211      N3218   1.156       .  T
C3212      N3217   1.156       .  T
C3213      N3215   1.157       .  T
C3214      C4359   1.450       .  S
C3214      N3216   1.155       .  T
C3219      C3220   1.417       .  A
C3219      C3224   1.422       .  A
C3220      C3221   1.417       .  A
C3220      C3225   1.450       .  S
C3221      C3222   1.419       .  A
C3221      C3228   1.450       .  S
C3222      C3538   1.502       .  S
C3222      C3223   1.415       .  A
C3223      C3224   1.401       .  A
C3223      C3226   1.455       .  S
C3224      C3227   1.454       .  S
C3226      N3231   1.157       .  T
C3227      N3229   1.157       .  T
C3228      N4382   1.157       .  T
N3230      C4380   1.158   1_545  T
C3233      C3234   1.418       .  A
C3233      C3238   1.420       .  A
C3234      C3235   1.411       .  A
C3234      C3239   1.452       .  S
C3235      C3236   1.408       .  A
C3235      C3242   1.451       .  S
C3236      C3237   1.408       .  A
C3237      C3238   1.408       .  A
C3237      C3240   1.453       .  S
C3238      C3241   1.452       .  S
C3239      N3246   1.157       .  T
C3240      N3245   1.157       .  T
C3241      N3243   1.158       .  T
C3247      C3248   1.417       .  A
C3247      C3252   1.420       .  A
C3248      C3249   1.412       .  A
C3248      C3253   1.452       .  S
C3249      C3250   1.417       .  A
C3249      C3256   1.451       .  S
C3250      C3251   1.418       .  A
C3251      C3252   1.420       .  A
C3251      C3254   1.450       .  S
C3252      C3255   1.452       .  S
C3253      N3260   1.158       .  T
C3254      N4411   1.158       .  T
C3255      N3257   1.157       .  T
C3256      N3258   1.156       .  T
N3259      C4406   1.157       .  T
C3261      C3262   1.419       .  A
C3261      C3266   1.417       .  A
C3262      C3263   1.407       .  A
C3262      C3267   1.453       .  S
C3263      C3264   1.419       .  A
C3263      C3270   1.453       .  S
C3264      C3265   1.421       .  A
C3265      C3266   1.419       .  A
C3265      C3268   1.450       .  S
C3267      N3274   1.156       .  T
C3268      N3273   1.157       .  T
C3269      N3271   1.157       .  T
C3270      N3272   1.157       .  T
C3275      C4428   1.410       .  A
C3275      C3280   1.407       .  A
C3276      C4427   1.412   1_545  A
C3276      C3277   1.413       .  A
C3276      C3281   1.451       .  S
C3277      C3278   1.409       .  A
C3277      C3284   1.447       .  S
C3278      C4431   1.413       .  A
C3279      C4430   1.417       .  A
C3279      C3280   1.420       .  A
C3279      C3282   1.448       .  S
C3280      C3283   1.446       .  S
C3281      N3288   1.157       .  T
C3282      N3287   1.157       .  T
C3283      N3285   1.157       .  T
C3284      N3286   1.157       .  T
C3289      C3294   1.410       .  A
C3290      C3291   1.420   1_455  A
C3290      C3295   1.449   1_455  S
C3291      C3292   1.409       .  A
C3291      C3298   1.445       .  S
C3293      C3294   1.414       .  A
C3293      C3296   1.451       .  S
C3294      C3297   1.446       .  S
C3295      N3302   1.156       .  T
C3296      N3301   1.157       .  T
C3297      N3299   1.156       .  T
C3298      N3300   1.157       .  T
C3303      C3304   1.408       .  A
C3303      C3308   1.411       .  A
C3304      C3305   1.416       .  A
C3304      C3309   1.451       .  S
C3305      C3306   1.422       .  A
C3305      C3312   1.449       .  S
C3306      C3307   1.420       .  A
C3307      C3308   1.408       .  A
C3307      C3310   1.453       .  S
C3308      C3311   1.453       .  S
C3309      N3316   1.157       .  T
C3310      N3315   1.158       .  T
C3311      N3313   1.157       .  T
C3312      N3314   1.157       .  T
C3317      C3318   1.410       .  A
C3317      C3322   1.410       .  A
C3318      C3319   1.414       .  A
C3318      C3323   1.452       .  S
C3319      C3320   1.421       .  A
C3319      C3326   1.451       .  S
C3320      C3321   1.422       .  A
C3321      C3322   1.413       .  A
C3322      C3325   1.451       .  S
C3323      N3330   1.157       .  T
C3324      N3329   1.158       .  T
C3325      N3327   1.157       .  T
C3326      N3328   1.158       .  T
C3331      C3588   1.488   1_545  S
C3331      C3332   1.417       .  A
C3331      C3336   1.415       .  A
C3332      C3333   1.414       .  A
C3332      C4489   1.451   1_545  S
C3333      C3334   1.415       .  A
C3334      C3335   1.403       .  A
C3335      C3336   1.400       .  A
C3335      C3338   1.450       .  S
C3336      C3339   1.443       .  S
C3337      C4484   1.451       .  S
C3337      N3344   1.157       .  T
C3338      N3343   1.157       .  T
C3339      N3341   1.154       .  T
C3340      N3342   1.157       .  T
C3345      C3522   1.506   1_545  S
C3345      C3346   1.427       .  A
C3345      C3350   1.419       .  A
C3346      C3347   1.421       .  A
C3346      C3351   1.449       .  S
C3347      C3348   1.408       .  A
C3347      C3354   1.448       .  S
C3348      C3349   1.410       .  A
C3349      C3350   1.404       .  A
C3349      C3352   1.448       .  S
C3350      C4505   1.452       .  S
C3351      N3358   1.157   1_545  T
C3352      N3357   1.155       .  T
C3353      C4502   1.452       .  S
C3353      N3355   1.157       .  T
C3354      N3356   1.157       .  T
C3359      C3360   1.413       .  A
C3359      C3364   1.410       .  A
C3360      C3361   1.406       .  A
C3360      C3365   1.443       .  S
C3361      C3362   1.406       .  A
C3361      C3368   1.452       .  S
C3362      C3363   1.415       .  A
C3363      C3364   1.419       .  A
C3363      C3366   1.446       .  S
C3364      C3367   1.448       .  S
C3365      N3372   1.154       .  T
C3366      N3371   1.157       .  T
C3367      N3369   1.157       .  T
C3368      N3370   1.157       .  T
C3373      C3374   1.425       .  A
C3373      C3378   1.422       .  A
C3374      C3375   1.410       .  A
C3374      C3379   1.452       .  S
C3375      C3376   1.409       .  A
C3375      C3382   1.451       .  S
C3376      C3377   1.414       .  A
C3377      C3378   1.413       .  A
C3377      C3380   1.451       .  S
C3378      C3381   1.454       .  S
C3379      N3386   1.158       .  T
C3380      N3385   1.157       .  T
C3381      N3383   1.157       .  T
C3387      C3388   1.415       .  A
C3387      C3392   1.413   1_545  A
C3388      C3389   1.414       .  A
C3388      C3393   1.449       .  S
C3389      C3390   1.412       .  A
C3389      C3396   1.450       .  S
C3390      C3391   1.418       .  A
C3391      C3392   1.408   1_545  A
C3391      C3394   1.454   1_545  S
C3392      C3395   1.454       .  S
C3393      N3400   1.157       .  T
C3394      N3399   1.157       .  T
C3395      N3397   1.158       .  T
C3396      N3398   1.158       .  T
C3401      C3402   1.423       .  A
C3401      C3406   1.422       .  A
C3402      C3403   1.418       .  A
C3402      C3407   1.451       .  S
C3403      C3404   1.417       .  A
C3403      C3410   1.450       .  S
C3404      C3472   1.500       .  S
C3404      C3405   1.411       .  A
C3405      C3406   1.400       .  A
C3405      C3408   1.451       .  S
C3406      C3409   1.452       .  S
C3407      N3414   1.157       .  T
C3408      N4565   1.155       .  T
C3409      N3411   1.157       .  T
C3410      N3412   1.157       .  T
N3413      C4560   1.156       .  T
C3415      C3416   1.426       .  A
C3415      C3420   1.423       .  A
C3417      C3418   1.414       .  A
C3417      C3424   1.458       .  S
C3419      C3420   1.430       .  A
C3419      C3422   1.447       .  S
C3420      C3423   1.446       .  S
C3421      N3428   1.157       .  T
C3422      N3427   1.157       .  T
C3423      N3425   1.158       .  T
C3424      N3426   1.158       .  T
C3429      C3430   1.410       .  A
C3429      C4586   1.413   1_545  A
C3430      C4583   1.412       .  A
C3430      C3435   1.450       .  S
C3431      C4582   1.412       .  A
C3431      C3432   1.411       .  A
C3431      C4590   1.449       .  S
C3432      C3433   1.410       .  A
C3433      C3434   1.419       .  A
C3433      C3436   1.446       .  S
C3434      C4581   1.412       .  A
C3434      C3437   1.447       .  S
C3435      N3442   1.157       .  T
C3436      N3441   1.157       .  T
C3437      N3439   1.157       .  T
C3438      C4583   1.450       .  S
C3438      N3440   1.158       .  T
C3443      C3444   1.413       .  A
C3443      C3448   1.415       .  A
C3444      C3445   1.402       .  A
C3444      C3449   1.454       .  S
C3445      C3446   1.415       .  A
C3445      C3452   1.452       .  S
C3446      C3447   1.418       .  A
C3447      C3448   1.422       .  A
C3447      C3450   1.447       .  S
C3448      C3451   1.450       .  S
C3450      N3455   1.157       .  T
C3451      N3453   1.158       .  T
C3452      N3454   1.156       .  T
Fe3457     O3473   2.055       .  S
Fe3457     O3463   2.021       .  S
Fe3457     O3470   2.029       .  S
Fe3457     O3462   2.083       .  S
Fe3457     O3468   1.906       .  S
Fe3458     O3461   2.075       .  S
Fe3458     O3465   2.073       .  S
Fe3458     O3469   2.104       .  S
Fe3458     O3474   2.018       .  S
Fe3458     O3468   1.945       .  S
Fe3459     O3477   2.062       .  S
Fe3459     O3464   2.106       .  S
Fe3459     O3471   2.144       .  S
Fe3459     O3460   2.081       .  S
Fe3459     O3468   1.952       .  S
O3460      C3467   1.267       .  A
O3461      C3475   1.272       .  A
O3462      C3467   1.269       .  A
O3463      C3466   1.261       .  A
O3464      C3476   1.280       .  A
O3465      C3478   1.267       .  A
C3466      O3471   1.283       .  A
C3466      C4570   1.493       .  S
C3467      C4581   1.489       .  S
O3469      C3472   1.277       .  A
O3470      C3472   1.268       .  A
O3473      C3478   1.267       .  A
O3474      C3476   1.265       .  A
C3475      O3477   1.271       .  A
C3475      C4525   1.504       .  S
C3476      C4542   1.479       .  S
Fe3479     O3495   2.095       .  S
Fe3479     O3485   2.045       .  S
Fe3479     O3492   2.068       .  S
Fe3479     O3484   2.071       .  S
Fe3479     O3490   1.978       .  S
Fe3480     O3483   2.050       .  S
Fe3480     O3487   2.008       .  S
Fe3480     O3491   2.048       .  S
Fe3480     O3496   2.048       .  S
Fe3480     O3490   1.939       .  S
Fe3481     O3499   2.099       .  S
Fe3481     O3486   2.121       .  S
Fe3481     O3493   2.102       .  S
Fe3481     O3482   2.063       .  S
Fe3481     O3490   1.963       .  S
O3482      C3489   1.267       .  A
O3483      C3497   1.266       .  A
O3484      C3489   1.269       .  A
O3485      C3488   1.269       .  A
O3486      C3498   1.278       .  A
O3487      C3500   1.256       .  A
C3488      O3493   1.282       .  A
C3488      C4455   1.480       .  S
C3489      C4469   1.491       .  S
O3491      C3494   1.269       .  A
O3492      C3494   1.270       .  A
O3495      C3500   1.268       .  A
O3496      C3498   1.261       .  A
C3497      O3499   1.273       .  A
C3497      C4514   1.480       .  S
C3498      C4567   1.507       .  S
C3500      C4500   1.484       .  S
Fe3501     O3517   2.058       .  S
Fe3501     O3507   2.043       .  S
Fe3501     O3514   2.033       .  S
Fe3501     O3506   2.070       .  S
Fe3501     O3512   1.969       .  S
Fe3502     O3505   2.074       .  S
Fe3502     O3509   2.074       .  S
Fe3502     O3513   2.097       .  S
Fe3502     O3518   2.052       .  S
Fe3502     O3512   1.981       .  S
Fe3503     O3521   2.075       .  S
Fe3503     O3508   2.073       .  S
Fe3503     O3515   2.103       .  S
Fe3503     O3504   2.096       .  S
Fe3503     O3512   1.992       .  S
O3504      C3511   1.271       .  A
O3505      C3519   1.273       .  A
O3506      C3511   1.268       .  A
O3507      C3510   1.265       .  A
O3508      C3520   1.271       .  A
O3509      C3522   1.267       .  A
C3510      O3515   1.273       .  A
C3510      C4427   1.488       .  S
C3511      C4441   1.496       .  S
O3513      C3516   1.275       .  A
O3514      C3516   1.263       .  A
O3517      C3522   1.268       .  A
O3518      C3520   1.267       .  A
C3519      O3521   1.272       .  A
C3519      C4399   1.501       .  S
C3520      C4385   1.488       .  S
Fe3523     O3539   2.077       .  S
Fe3523     O3529   2.065       .  S
Fe3523     O3536   2.090       .  S
Fe3523     O3528   2.038       .  S
Fe3523     O3534   1.978       .  S
Fe3524     O3527   2.033       .  S
Fe3524     O3531   2.058       .  S
Fe3524     O3535   2.028       .  S
Fe3524     O3540   2.061       .  S
Fe3524     O3534   1.951       .  S
Fe3525     O3543   2.116       .  S
Fe3525     O3530   2.097       .  S
Fe3525     O3537   2.074       .  S
Fe3525     O3526   2.085       .  S
Fe3525     O3534   1.975       .  S
O3526      C3533   1.274       .  A
O3527      C3541   1.268       .  A
O3528      C3533   1.266       .  A
O3529      C3532   1.270       .  A
O3530      C3542   1.269       .  A
O3531      C3544   1.267       .  A
C3532      O3537   1.272       .  A
C3532      C4343   1.502       .  S
C3533      C4357   1.487       .  S
O3535      C3538   1.266       .  A
O3536      C3538   1.273       .  A
O3539      C3544   1.266       .  A
O3540      C3542   1.264       .  A
C3541      O3543   1.280       .  A
C3541      C4511   1.493       .  S
C3542      C4430   1.494       .  S
C3544      C4598   1.488       .  S
Fe3545     O3561   2.077       .  S
Fe3545     O3551   2.074       .  S
Fe3545     O3558   2.085       .  S
Fe3545     O3550   2.058       .  S
Fe3545     O3556   1.985       .  S
Fe3546     O3549   2.040       .  S
Fe3546     O3553   2.044       .  S
Fe3546     O3557   2.026       .  S
Fe3546     O3562   2.059       .  S
Fe3546     O3556   1.968       .  S
Fe3547     O3565   2.114       .  S
Fe3547     O3552   2.099       .  S
Fe3547     O3559   2.064       .  S
Fe3547     O3548   2.081       .  S
Fe3547     O3556   1.986       .  S
O3548      C3555   1.275       .  A
O3549      C3563   1.264       .  A
O3550      C3555   1.267       .  A
O3551      C3554   1.271       .  A
O3552      C3564   1.270       .  A
O3553      C3566   1.265       .  A
C3554      O3559   1.270       .  A
C3554      C4318   1.496       .  S
C3555      C4301   1.503       .  S
O3557      C3560   1.262       .  A
O3558      C3560   1.271       .  A
C3560      C4553   1.500       .  S
O3561      C3566   1.269       .  A
O3562      C3564   1.265       .  A
C3563      O3565   1.276       .  A
C3563      C4444   1.490       .  S
C3564      C4332   1.494       .  S
Fe3567     O3583   2.065       .  S
Fe3567     O3573   2.073       .  S
Fe3567     O3580   2.083       .  S
Fe3567     O3572   2.048       .  S
Fe3567     O3578   1.980       .  S
Fe3568     O3571   2.049       .  S
Fe3568     O3575   2.047       .  S
Fe3568     O3579   2.047       .  S
Fe3568     O3584   2.061       .  S
Fe3568     O3578   1.968       .  S
Fe3569     O3587   2.110       .  S
Fe3569     O3574   2.101       .  S
Fe3569     O3581   2.083       .  S
Fe3569     O3570   2.087       .  S
Fe3569     O3578   1.987       .  S
O3570      C3577   1.273       .  A
O3571      C3585   1.267       .  A
O3572      C3577   1.265       .  A
O3573      C3576   1.272       .  A
O3574      C3586   1.272       .  A
O3575      C3588   1.263       .  A
C3576      O3581   1.274       .  A
C3576      C4287   1.498       .  S
C3577      C4273   1.490       .  S
O3579      C3582   1.269       .  A
O3580      C3582   1.273       .  A
C3582      C4416   1.505       .  S
O3583      C3588   1.266       .  A
O3584      C3586   1.265       .  A
C3585      O3587   1.276       .  A
C3585      C4584   1.492       .  S
C3586      C4329   1.495       .  S
Fe3589     O3605   2.072       .  S
Fe3589     O3595   2.047       .  S
Fe3589     O3602   2.076       .  S
Fe3589     O3594   2.048       .  S
Fe3589     O3600   1.979       .  S
Fe3590     O3593   2.028       .  S
Fe3590     O3597   2.054       .  S
Fe3590     O3601   2.036       .  S
Fe3590     O3606   2.055       .  S
Fe3590     O3600   1.956       .  S
Fe3591     O3603   2.068       .  S
Fe3591     O3592   2.096       .  S
O3592      C3599   1.279       .  A
O3593      C3607   1.265       .  A
O3596      C3608   1.270       .  A
O3597      C3610   1.269       .  A
C3598      O3603   1.265       .  A
C3598      C4539   1.482       .  S
C3599      C4360   1.480       .  S
O3601      C3604   1.261       .  A
O3602      C3604   1.266       .  A
C3604      C4248   1.498       .  S
O3605      C3610   1.271       .  A
O3606      C3608   1.267       .  A
C3607      O3609   1.277       .  A
C3607      C4231   1.496       .  S
C3608      C4259   1.487       .  S
C3610      C4217   1.490       .  S
Fe3611     O3627   2.055       .  S
Fe3611     O3617   2.055       .  S
Fe3611     O3624   2.057       .  S
Fe3611     O3616   2.057       .  S
Fe3611     O3622   1.958       .  S
Fe3612     O3615   2.046       .  S
Fe3612     O3619   2.067       .  S
Fe3612     O3623   2.070       .  S
Fe3612     O3628   2.052       .  S
Fe3612     O3622   1.978       .  S
Fe3613     O3631   2.093       .  S
Fe3613     O3618   2.062       .  S
Fe3613     O3625   2.087       .  S
Fe3613     O3614   2.099       .  S
Fe3613     O3622   1.988       .  S
O3614      C3621   1.278       .  A
O3615      C3629   1.271       .  A
O3616      C3621   1.273       .  A
O3617      C3620   1.263       .  A
O3618      C3630   1.263       .  A
O3619      C3632   1.267       .  A
C3620      O3625   1.267       .  A
C3620      C4262   1.489       .  S
C3621      C4192   1.501       .  S
O3623      C3626   1.267       .  A
O3624      C3626   1.269       .  A
C3626      C4178   1.486       .  S
O3627      C3632   1.268       .  A
O3628      C3630   1.262       .  A
C3629      O3631   1.281       .  A
C3629      C4161   1.493       .  S
C3630      C4150   1.475       .  S
C3632      C4203   1.499       .  S
Fe3633     O3649   2.090       .  S
Fe3633     O3639   2.014       .  S
Fe3633     O3646   2.052       .  S
Fe3633     O3638   2.063       .  S
Fe3633     O3644   1.983       .  S
Fe3634     O3637   2.048       .  S
Fe3634     O3641   2.025       .  S
Fe3634     O3645   2.066       .  S
Fe3634     O3650   2.027       .  S
Fe3634     O3644   1.947       .  S
Fe3635     O3640   2.149       .  S
Fe3635     O3647   2.124   1_455  S
Fe3635     O3636   2.064   1_455  S
O3636      C3643   1.270       .  A
O3637      C3651   1.264       .  A
O3641      C3654   1.263       .  A
C3642      O3647   1.284       .  A
C3642      C4315   1.496       .  S
C3643      C4528   1.490       .  S
O3645      C3648   1.269       .  A
O3646      C3648   1.263       .  A
C3648      C4119   1.471       .  S
O3649      C3654   1.268       .  A
O3650      C3652   1.264       .  A
C3651      O3653   1.270       .  A
C3651      C4189   1.488       .  S
C3652      C4136   1.522       .  S
C3654      C4245   1.482       .  S
Fe3655     O3671   2.048       .  S
Fe3655     O3661   2.040       .  S
Fe3655     O3668   2.075       .  S
Fe3655     O3660   2.026       .  S
Fe3655     O3666   1.978       .  S
Fe3656     O3659   2.050       .  S
Fe3656     O3663   2.058       .  S
Fe3656     O3667   2.052       .  S
Fe3656     O3672   2.045       .  S
Fe3656     O3666   1.958       .  S
Fe3657     O3675   2.098       .  S
Fe3657     O3662   2.106       .  S
Fe3657     O3669   2.100       .  S
Fe3657     O3658   2.093       .  S
Fe3657     O3666   1.991       .  S
O3658      C3665   1.272       .  A
O3659      C3673   1.265       .  A
O3660      C3665   1.257       .  A
O3661      C3664   1.269       .  A
O3662      C3674   1.276       .  A
O3663      C3676   1.264       .  A
C3664      O3669   1.279       .  A
C3664      C4080   1.482       .  S
C3665      C4063   1.501       .  S
O3667      C3670   1.269       .  A
O3668      C3670   1.271       .  A
C3670      C4175   1.478       .  S
O3671      C3676   1.261       .  A
O3672      C3674   1.268       .  A
C3673      O3675   1.273       .  A
C3673      C4105   1.489       .  S
C3674      C4133   1.499       .  S
C3676      C4094   1.491       .  S
Fe3677     O3693   2.071       .  S
Fe3677     O3683   2.051       .  S
Fe3677     O3690   2.093       .  S
Fe3677     O3682   2.041       .  S
Fe3677     O3688   1.960       .  S
Fe3678     O3681   2.019       .  S
Fe3678     O3685   2.059       .  S
Fe3678     O3689   2.029       .  S
Fe3678     O3694   2.057       .  S
Fe3678     O3688   1.924       .  S
Fe3679     O3697   2.147       .  S
Fe3679     O3684   2.116       .  S
Fe3679     O3691   2.092       .  S
Fe3679     O3680   2.106       .  S
Fe3679     O3688   1.953       .  S
O3680      C3687   1.281       .  A
O3681      C3695   1.264       .  A
O3682      C3687   1.268       .  A
O3683      C3686   1.267       .  A
O3684      C3696   1.276       .  A
O3685      C3698   1.262       .  A
C3686      O3691   1.278       .  A
C3686      C4021   1.479       .  S
C3687      C4035   1.492       .  S
O3689      C3692   1.267       .  A
O3690      C3692   1.273       .  A
C3692      C4091   1.478       .  S
O3693      C3698   1.264       .  A
O3694      C3696   1.263       .  A
C3695      O3697   1.285       .  A
C3695      C4234   1.524       .  S
C3696      C4049   1.512       .  S
C3698      C4206   1.477       .  S
Fe3699     O3715   2.058       .  S
Fe3699     O3705   2.048       .  S
Fe3699     O3712   2.045       .  S
Fe3699     O3704   2.063       .  S
Fe3699     O3710   1.955       .  S
Fe3700     O3703   2.032       .  S
Fe3700     O3707   2.070       .  S
Fe3700     O3711   2.061       .  S
Fe3700     O3716   2.056       .  S
Fe3700     O3710   1.977       .  S
Fe3701     O3719   2.087       .  S
Fe3701     O3706   2.097       .  S
Fe3701     O3713   2.122       .  S
Fe3701     O3702   2.101       .  S
Fe3701     O3710   1.986       .  S
O3702      C3709   1.272       .  A
O3703      C3717   1.259       .  A
O3704      C3709   1.266       .  A
O3705      C3708   1.269       .  A
O3706      C3718   1.282       .  A
O3707      C3720   1.272       .  A
C3708      O3713   1.281       .  A
C3708      C4052   1.506       .  S
C3709      C4108   1.497       .  S
O3711      C3714   1.262       .  A
O3712      C3714   1.262       .  A
C3714      C4122   1.490       .  S
O3715      C3720   1.271       .  A
O3716      C3718   1.273       .  A
C3717      O3719   1.269       .  A
C3717      C4304   1.498       .  S
C3718      C4346   1.479       .  S
C3720      C4220   1.491       .  S
Fe3721     O3737   2.065       .  S
Fe3721     O3727   2.029       .  S
Fe3721     O3734   2.034       .  S
Fe3721     O3726   2.072       .  S
Fe3721     O3732   1.963       .  S
Fe3722     O3725   2.064       .  S
Fe3722     O3729   2.042       .  S
Fe3722     O3733   2.092       .  S
Fe3722     O3738   2.021       .  S
Fe3722     O3732   1.989       .  S
Fe3723     O3741   2.081       .  S
Fe3723     O3728   2.076       .  S
Fe3723     O3735   2.103       .  S
Fe3723     O3724   2.103       .  S
Fe3723     O3732   1.993       .  S
O3724      C3731   1.274       .  A
O3725      C3739   1.268       .  A
O3726      C3731   1.270       .  A
O3727      C3730   1.262       .  A
O3728      C3740   1.270       .  A
O3729      C3742   1.263       .  A
C3730      O3735   1.273       .  A
C3730      C4007   1.486       .  S
C3731      C3979   1.495       .  S
O3733      C3736   1.271       .  A
O3734      C3736   1.263       .  A
C3736      C3965   1.502       .  S
O3737      C3742   1.269       .  A
O3738      C3740   1.262       .  A
C3739      O3741   1.274       .  A
C3739      C4066   1.482       .  S
C3740      C4024   1.470       .  S
C3742      C3993   1.470       .  S
Fe3743     O3759   2.090       .  S
Fe3743     O3749   2.059       .  S
Fe3743     O3756   2.077       .  S
Fe3743     O3748   2.067       .  S
Fe3743     O3754   1.975       .  S
Fe3744     O3747   2.027       .  S
Fe3744     O3751   2.038       .  S
Fe3744     O3755   2.037       .  S
Fe3744     O3760   2.052       .  S
Fe3744     O3754   1.940       .  S
Fe3745     O3763   2.130       .  S
Fe3745     O3750   2.082       .  S
Fe3745     O3757   2.066       .  S
Fe3745     O3746   2.091       .  S
O3746      C3753   1.275       .  A
O3747      C3761   1.260       .  A
O3751      C3764   1.265       .  A
C3752      O3757   1.274       .  A
C3752      C4388   1.479       .  S
C3753      C4472   1.496       .  S
O3755      C3758   1.265       .  A
O3756      C3758   1.267       .  A
C3758      C3923   1.475       .  S
O3759      C3764   1.273       .  A
O3760      C3762   1.269       .  A
C3761      C3951   1.483       .  S
C3762      C4010   1.485       .  S
C3764      C3940   1.492       .  S
Fe3765     O3781   2.056       .  S
Fe3765     O3771   2.070       .  S
Fe3765     O3778   2.091       .  S
Fe3765     O3770   2.033       .  S
Fe3765     O3776   1.987       .  S
Fe3766     O3769   2.029       .  S
Fe3766     O3773   2.057       .  S
Fe3766     O3777   2.022       .  S
Fe3766     O3782   2.060       .  S
Fe3766     O3776   1.960       .  S
Fe3767     O3785   2.118       .  S
Fe3767     O3772   2.093       .  S
Fe3767     O3779   2.063       .  S
Fe3767     O3768   2.099       .  S
Fe3767     O3776   1.985       .  S
O3768      C3775   1.276       .  A
O3769      C3783   1.258       .  A
O3770      C3775   1.265       .  A
O3771      C3774   1.270       .  A
O3772      C3784   1.274       .  A
O3773      C3786   1.270       .  A
C3774      O3779   1.270       .  A
C3774      C4147   1.492       .  S
C3775      C4038   1.492       .  S
O3777      C3780   1.259       .  A
O3778      C3780   1.268       .  A
C3780      C3895   1.497       .  S
O3781      C3786   1.266       .  A
O3782      C3784   1.270       .  A
C3783      O3785   1.275       .  A
C3783      C3954   1.509       .  S
C3784      C3909   1.485       .  S
C3786      C3996   1.467       .  S
Fe3787     O3803   2.089       .  S
Fe3787     O3793   2.055       .  S
Fe3787     O3800   2.091       .  S
Fe3787     O3792   2.064       .  S
Fe3787     O3798   1.982       .  S
Fe3788     O3791   2.042       .  S
Fe3788     O3795   2.028       .  S
Fe3788     O3799   2.031       .  S
Fe3788     O3804   2.043       .  S
Fe3788     O3798   1.967       .  S
Fe3789     O3807   2.119       .  S
Fe3789     O3794   2.115       .  S
Fe3789     O3801   2.082       .  S
Fe3789     O3790   2.079       .  S
Fe3789     O3798   1.987       .  S
O3790      C3797   1.274       .  A
O3791      C3805   1.263       .  A
O3792      C3797   1.271       .  A
O3793      C3796   1.268       .  A
O3794      C3806   1.276       .  A
O3795      C3808   1.261       .  A
C3796      O3801   1.274       .  A
C3796      C4077   1.487       .  S
C3797      C4164   1.493       .  S
O3799      C3802   1.263       .  A
O3800      C3802   1.271       .  A
C3802      C3968   1.508       .  S
O3803      C3808   1.271       .  A
O3804      C3806   1.263       .  A
C3805      O3807   1.276       .  A
C3805      C3870   1.496       .  S
C3806      C3881   1.494       .  S
C3808      C3898   1.502       .  S
Fe3809     O3825   2.077       .  S
Fe3809     O3815   2.080       .  S
Fe3809     O3822   2.093       .  S
Fe3809     O3814   2.066       .  S
Fe3809     O3820   1.980       .  S
Fe3810     O3813   2.049       .  S
Fe3810     O3817   2.045       .  S
Fe3810     O3821   2.043       .  S
Fe3810     O3826   2.052       .  S
Fe3810     O3820   1.961       .  S
Fe3811     O3829   2.107       .  S
Fe3811     O3816   2.135       .  S
Fe3811     O3823   2.095       .  S
Fe3811     O3812   2.083       .  S
O3812      C3819   1.274       .  A
O3813      C3827   1.263       .  A
O3817      C3830   1.266       .  A
C3818      O3823   1.278       .  A
C3818      C4290   1.511       .  S
C3819      C4402   1.508       .  S
O3821      C3824   1.265       .  A
O3822      C3824   1.274       .  A
C3824      C3856   1.500       .  S
O3825      C3830   1.268       .  A
O3826      C3828   1.267       .  A
C3827      C3982   1.497       .  S
C3828      C3884   1.495       .  S
C3830      C3926   1.476       .  S
Fe3831     O3847   2.051       .  S
Fe3831     O3837   2.055       .  S
Fe3831     O3844   2.052       .  S
Fe3831     O3836   2.060       .  S
Fe3831     O3842   1.971       .  S
Fe3832     O3835   2.062       .  S
Fe3832     O3839   2.082       .  S
Fe3832     O3843   2.092       .  S
Fe3832     O3848   2.062       .  S
Fe3832     O3842   1.982       .  S
Fe3833     O3851   2.087       .  S
Fe3833     O3838   2.076       .  S
Fe3833     O3845   2.100       .  S
Fe3833     O3834   2.104       .  S
Fe3833     O3842   1.994       .  S
O3834      C3841   1.274       .  A
O3835      C3849   1.270       .  A
O3836      C3841   1.267       .  A
O3837      C3840   1.267       .  A
O3838      C3850   1.271       .  A
O3839      C3852   1.270       .  A
C3840      O3845   1.272       .  A
C3840      C3912   1.489       .  S
C3841      C3867   1.494       .  S
O3843      C3846   1.273       .  A
O3844      C3846   1.268       .  A
C3846      C3853   1.506       .  S
O3847      C3852   1.266       .  A
O3848      C3850   1.270       .  A
C3849      O3851   1.274       .  A
C3849      C4276   1.495       .  S
C3850      C4458   1.501       .  S
C3852      C3937   1.508       .  S
C3853      C3854   1.418       .  A
C3853      C3858   1.420       .  A
C3854      C3855   1.409       .  A
C3854      C3859   1.452       .  S
C3855      C3856   1.417       .  A
C3855      C3862   1.452       .  S
C3856      C3857   1.417       .  A
C3857      C3858   1.421       .  A
C3857      C3860   1.451       .  S
C3858      C3861   1.450       .  S
C3859      N3866   1.156       .  T
C3860      N3865   1.157       .  T
C3861      N3863   1.158       .  T
C3862      N3864   1.157       .  T
C3867      C3868   1.415       .  A
C3867      C3872   1.410       .  A
C3868      C3869   1.420       .  A
C3868      C3873   1.450       .  S
C3869      C3870   1.409       .  A
C3869      C3876   1.444       .  S
C3870      C3871   1.413       .  A
C3871      C3872   1.415       .  A
C3871      C3874   1.449       .  S
C3872      C3875   1.446       .  S
C3873      N3880   1.157       .  T
C3874      N3879   1.157       .  T
C3875      N3877   1.156       .  T
C3876      N3878   1.156       .  T
C3881      C3882   1.409       .  A
C3881      C3886   1.416       .  A
C3882      C3883   1.417       .  A
C3882      C3887   1.445       .  S
C3883      C3884   1.415       .  A
C3883      C3890   1.451       .  S
C3884      C3885   1.409       .  A
C3885      C3886   1.418       .  A
C3887      N3894   1.156       .  T
C3888      N3893   1.156       .  T
C3889      N3891   1.157       .  T
C3890      N3892   1.158       .  T
C3895      C3896   1.413       .  A
C3895      C3900   1.414       .  A
C3896      C3897   1.403       .  A
C3896      C3901   1.454       .  S
C3897      C3898   1.424       .  A
C3897      C3904   1.454       .  S
C3898      C3899   1.420       .  A
C3899      C3900   1.419       .  A
C3899      C3902   1.450       .  S
C3900      C3903   1.449   1_556  S
C3901      N3908   1.156       .  T
C3902      N3907   1.158   1_556  T
C3903      N3905   1.157       .  T
C3904      N3906   1.157       .  T
C3909      C3910   1.413       .  A
C3909      C3914   1.408       .  A
C3910      C3911   1.415       .  A
C3910      C3915   1.450       .  S
C3911      C3912   1.407       .  A
C3911      C3918   1.445       .  S
C3912      C3913   1.412       .  A
C3913      C3914   1.413       .  A
C3913      C3916   1.448       .  S
C3914      C3917   1.449       .  S
C3915      N3922   1.157       .  T
C3916      N3921   1.157       .  T
C3917      N3919   1.157       .  T
C3918      N3920   1.157       .  T
C3923      C3924   1.409       .  A
C3923      C3928   1.413       .  A
C3924      C3925   1.398       .  A
C3924      C3929   1.455       .  S
C3925      C3926   1.412       .  A
C3925      C3932   1.452       .  S
C3926      C3927   1.412       .  A
C3927      C3928   1.418       .  A
C3927      C3930   1.449       .  S
C3928      C3931   1.448       .  S
C3929      N3936   1.157       .  T
C3930      N3935   1.157       .  T
C3931      N3933   1.157       .  T
C3932      N3934   1.157       .  T
C3937      C3938   1.425       .  A
C3937      C3942   1.423       .  A
C3938      C3939   1.419       .  A
C3938      C3943   1.450       .  S
C3939      C3940   1.410       .  A
C3939      C3946   1.449       .  S
C3940      C3941   1.409       .  A
C3941      C3942   1.406       .  A
C3941      C3944   1.453       .  S
C3942      C3945   1.450       .  S
C3943      N3950   1.157       .  T
C3944      N3949   1.156       .  T
C3945      N3947   1.157       .  T
C3946      N3948   1.157       .  T
C3951      C3952   1.413       .  A
C3951      C3956   1.403       .  A
C3952      C3953   1.425       .  A
C3953      C3954   1.419       .  A
C3953      C3960   1.447       .  S
C3954      C3955   1.426       .  A
C3955      C3956   1.405       .  A
C3955      C3958   1.449       .  S
C3956      C3959   1.454       .  S
C3957      N3964   1.157       .  T
C3958      N3963   1.157       .  T
C3959      N3961   1.157       .  T
C3965      C3966   1.412       .  A
C3965      C3970   1.414       .  A
C3966      C3967   1.404       .  A
C3966      C3971   1.452       .  S
C3967      C3968   1.424       .  A
C3967      C3974   1.454       .  S
C3968      C3969   1.424       .  A
C3969      C3970   1.421       .  A
C3969      C3972   1.450       .  S
C3970      C3973   1.449   1_556  S
C3971      N3978   1.156       .  T
C3972      N3977   1.158   1_556  T
C3973      N3975   1.157       .  T
C3974      N3976   1.157       .  T
C3979      C3980   1.406       .  A
C3979      C3984   1.411       .  A
C3980      C3981   1.415       .  A
C3980      C3985   1.448       .  S
C3981      C3982   1.417       .  A
C3982      C3983   1.411       .  A
C3983      C3984   1.419       .  A
C3983      C3986   1.446       .  S
C3984      C3987   1.446       .  S
C3985      N3992   1.157       .  T
C3986      N3991   1.156       .  T
C3987      N3989   1.157       .  T
C3988      N3990   1.157       .  T
C3993      C3994   1.410       .  A
C3993      C3998   1.413       .  A
C3994      C3995   1.406       .  A
C3994      C3999   1.448       .  S
C3995      C3996   1.405       .  A
C3995      C4002   1.450       .  S
C3996      C3997   1.405       .  A
C3997      C3998   1.404       .  A
C3997      C4000   1.449       .  S
C3998      C4001   1.448       .  S
C3999      N4006   1.157       .  T
C4000      N4005   1.156   1_556  T
C4001      N4003   1.155       .  T
C4002      N4004   1.157       .  T
C4007      C4008   1.416       .  A
C4007      C4012   1.417       .  A
C4008      C4009   1.397       .  A
C4008      C4013   1.452       .  S
C4009      C4010   1.404       .  A
C4009      C4016   1.450       .  S
C4010      C4011   1.411       .  A
C4011      C4012   1.423       .  A
C4012      C4015   1.446       .  S
C4013      N4020   1.157       .  T
C4014      N4019   1.157       .  T
C4016      N4018   1.157       .  T
C4021      C4022   1.407       .  A
C4021      C4026   1.412       .  A
C4022      C4027   1.447       .  S
C4023      C4024   1.410       .  A
C4023      C4030   1.454       .  S
C4024      C4025   1.412       .  A
C4025      C4028   1.450       .  S
C4026      C4029   1.449       .  S
C4027      N4034   1.155       .  T
C4028      N4033   1.158       .  T
C4029      N4031   1.157       .  T
C4030      N4032   1.156       .  T
C4035      C4036   1.421   1_554  A
C4035      C4040   1.411       .  A
C4036      C4037   1.414       .  A
C4036      C4041   1.452       .  S
C4037      C4038   1.411       .  A
C4037      C4044   1.452       .  S
C4038      C4039   1.420   1_556  A
C4039      C4040   1.410       .  A
C4039      C4042   1.452       .  S
C4040      C4043   1.452       .  S
C4041      N4048   1.158       .  T
C4042      N4047   1.158       .  T
C4043      N4045   1.157       .  T
C4044      N4046   1.157       .  T
C4049      C4050   1.420       .  A
C4049      C4054   1.422       .  A
C4050      C4051   1.430       .  A
C4050      C4055   1.449       .  S
C4051      C4052   1.418       .  A
C4051      C4058   1.447       .  S
C4052      C4053   1.415       .  A
C4053      C4054   1.408       .  A
C4053      C4056   1.455       .  S
C4054      C4057   1.453       .  S
C4055      N4062   1.158       .  T
C4056      N4061   1.157       .  T
C4057      N4059   1.156       .  T
C4058      N4060   1.156       .  T
C4063      C4064   1.427   1_554  A
C4063      C4068   1.418       .  A
C4064      C4069   1.452       .  S
C4065      C4066   1.402       .  A
C4065      C4072   1.448       .  S
C4066      C4067   1.409   1_556  A
C4067      C4070   1.449       .  S
C4068      C4071   1.451       .  S
C4069      N4076   1.158       .  T
C4070      N4075   1.157       .  T
C4071      N4073   1.157       .  T
C4072      N4074   1.155       .  T
C4077      C4078   1.417       .  A
C4077      C4082   1.413       .  A
C4078      C4079   1.417   1_556  A
C4078      C4083   1.450       .  S
C4079      C4080   1.411       .  A
C4079      C4086   1.450       .  S
C4080      C4081   1.412       .  A
C4081      C4082   1.404   1_554  A
C4081      C4084   1.450       .  S
C4082      C4085   1.452       .  S
C4083      N4090   1.157       .  T
C4084      N4089   1.156       .  T
C4085      N4087   1.157       .  T
C4086      N4088   1.157       .  T
C4091      C4092   1.405   1_554  A
C4091      C4096   1.405       .  A
C4092      C4093   1.411       .  A
C4092      C4097   1.447       .  S
C4093      C4094   1.423   1_556  A
C4093      C4100   1.451       .  S
C4094      C4095   1.416       .  A
C4095      C4096   1.404       .  A
C4095      C4098   1.446       .  S
C4096      C4099   1.453       .  S
C4097      N4104   1.157       .  T
C4098      N4103   1.156       .  T
C4099      N4101   1.157       .  T
C4100      N4102   1.157       .  T
C4105      C4106   1.409       .  A
C4105      C4110   1.410       .  A
C4106      C4107   1.412       .  A
C4106      C4111   1.449       .  S
C4107      C4108   1.411       .  A
C4107      C4114   1.443       .  S
C4108      C4109   1.413       .  A
C4109      C4110   1.416       .  A
C4109      C4112   1.449       .  S
C4110      C4113   1.445       .  S
C4111      N4118   1.157       .  T
C4112      N4117   1.157       .  T
C4113      N4115   1.157       .  T
C4114      N4116   1.156       .  T
C4119      C4120   1.404       .  A
C4119      C4124   1.403       .  A
C4120      C4121   1.411       .  A
C4120      C4125   1.448       .  S
C4121      C4122   1.421       .  A
C4121      C4128   1.449       .  S
C4122      C4123   1.415       .  A
C4123      C4124   1.403       .  A
C4123      C4126   1.448       .  S
C4124      C4127   1.448       .  S
C4125      N4132   1.156       .  T
C4126      N4131   1.156       .  T
C4127      N4129   1.155       .  T
C4128      N4130   1.157       .  T
C4133      C4134   1.413       .  A
C4133      C4138   1.413       .  A
C4134      C4135   1.406       .  A
C4134      C4139   1.458       .  S
C4135      C4136   1.431       .  A
C4135      C4142   1.455       .  S
C4136      C4137   1.426       .  A
C4137      C4138   1.426       .  A
C4138      C4141   1.449       .  S
C4139      N4146   1.158       .  T
C4140      N4145   1.158   1_455  T
C4142      N4144   1.157       .  T
C4147      C4148   1.419   1_556  A
C4147      C4152   1.417       .  A
C4148      C4153   1.451       .  S
C4149      C4150   1.407       .  A
C4149      C4156   1.450       .  S
C4150      C4151   1.409       .  A
C4151      C4154   1.452       .  S
C4152      C4155   1.452       .  S
C4153      N4160   1.157       .  T
C4154      N4159   1.157   1_554  T
C4155      N4157   1.158       .  T
C4156      N4158   1.157       .  T
C4161      C4162   1.421   1_554  A
C4161      C4166   1.413       .  A
C4162      C4163   1.412       .  A
C4162      C4167   1.453       .  S
C4163      C4170   1.452       .  S
C4164      C4165   1.417   1_556  A
C4165      C4168   1.452       .  S
C4166      C4169   1.452       .  S
C4167      N4174   1.158       .  T
C4168      N4173   1.158       .  T
C4169      N4171   1.157       .  T
C4170      N4172   1.157       .  T
C4175      C4176   1.412       .  A
C4175      C4180   1.411       .  A
C4176      C4177   1.416       .  A
C4176      C4181   1.449       .  S
C4177      C4178   1.414       .  A
C4177      C4184   1.446       .  S
C4178      C4179   1.414       .  A
C4179      C4180   1.400       .  A
C4179      C4182   1.452       .  S
C4180      C4183   1.454       .  S
C4181      N4188   1.157       .  T
C4182      N4187   1.156       .  T
C4183      N4185   1.157       .  T
C4184      N4186   1.157       .  T
C4189      C4190   1.412       .  A
C4189      C4194   1.409       .  A
C4190      C4191   1.422       .  A
C4190      C4195   1.446       .  S
C4191      C4192   1.418       .  A
C4191      C4198   1.448       .  S
C4192      C4193   1.417       .  A
C4193      C4194   1.405       .  A
C4193      C4196   1.451       .  S
C4195      N4202   1.156       .  T
C4196      N4201   1.155       .  T
C4197      N4199   1.156       .  T
C4198      N4200   1.158       .  T
C4203      C4204   1.417       .  A
C4203      C4208   1.426   1_554  A
C4204      C4205   1.406       .  A
C4204      C4209   1.448       .  S
C4205      C4206   1.407       .  A
C4205      C4212   1.450       .  S
C4206      C4207   1.404   1_554  A
C4207      C4208   1.414       .  A
C4207      C4210   1.448       .  S
C4208      C4211   1.451       .  S
C4209      N4216   1.155       .  T
C4210      N4215   1.157       .  T
C4211      N4213   1.158       .  T
C4212      N4214   1.157       .  T
C4217      C4218   1.415       .  A
C4217      C4222   1.415       .  A
C4218      C4219   1.414       .  A
C4218      C4223   1.450       .  S
C4219      C4220   1.416       .  A
C4219      C4226   1.450       .  S
C4220      C4221   1.415       .  A
C4221      C4222   1.406       .  A
C4221      C4224   1.453       .  S
C4222      C4225   1.452       .  S
C4223      N4230   1.157       .  T
C4224      N4229   1.157       .  T
C4225      N4227   1.156       .  T
C4226      N4228   1.157       .  T
C4231      C4232   1.413       .  A
C4231      C4236   1.409       .  A
C4232      C4233   1.429       .  A
C4233      C4234   1.427       .  A
C4233      C4240   1.448       .  S
C4234      C4235   1.432       .  A
C4235      C4236   1.403       .  A
C4235      C4238   1.456       .  S
C4236      C4239   1.457       .  S
C4237      N4244   1.157       .  T
C4238      N4243   1.158       .  T
C4239      N4241   1.157       .  T
C4245      C4246   1.402       .  A
C4245      C4250   1.404       .  A
C4246      C4247   1.401       .  A
C4246      C4251   1.451       .  S
C4247      C4248   1.423       .  A
C4247      C4254   1.448       .  S
C4248      C4249   1.424       .  A
C4249      C4250   1.416       .  A
C4249      C4252   1.449       .  S
C4250      C4253   1.447       .  S
C4251      N4258   1.156       .  T
C4252      N4257   1.157       .  T
C4253      N4255   1.157       .  T
C4254      N4256   1.156       .  T
C4259      C4260   1.407       .  A
C4259      C4264   1.410       .  A
C4260      C4261   1.413       .  A
C4260      C4265   1.447       .  S
C4261      C4262   1.412       .  A
C4261      C4268   1.447       .  S
C4262      C4263   1.411       .  A
C4263      C4264   1.414       .  A
C4263      C4266   1.447       .  S
C4265      N4272   1.157       .  T
C4267      N4269   1.158       .  T
C4268      N4270   1.157       .  T
C4273      C4274   1.415       .  A
C4273      C4278   1.412       .  A
C4274      C4275   1.411       .  A
C4274      C4279   1.452       .  S
C4275      C4276   1.416       .  A
C4275      C4282   1.452       .  S
C4276      C4277   1.417       .  A
C4277      C4278   1.415       .  A
C4277      C4280   1.448       .  S
C4278      C4281   1.452       .  S
C4279      N4286   1.157       .  T
C4280      N4285   1.156       .  T
C4281      N4283   1.157       .  T
C4282      N4284   1.157       .  T
C4287      C4288   1.412       .  A
C4287      C4292   1.415       .  A
C4288      C4289   1.415       .  A
C4288      C4293   1.451       .  S
C4289      C4290   1.424       .  A
C4289      C4296   1.451   1_565  S
C4290      C4291   1.421       .  A
C4291      C4292   1.417       .  A
C4291      C4294   1.451       .  S
C4292      C4295   1.452       .  S
C4293      N4300   1.157       .  T
C4294      N4299   1.157       .  T
C4295      N4297   1.158       .  T
C4301      C4302   1.416       .  A
C4301      C4306   1.425       .  A
C4302      C4303   1.411       .  A
C4302      C4307   1.454       .  S
C4303      C4304   1.421       .  A
C4303      C4310   1.453       .  S
C4304      C4305   1.410       .  A
C4305      C4306   1.415       .  A
C4305      C4308   1.451       .  S
C4306      C4309   1.450       .  S
C4307      N4314   1.157       .  T
C4308      N4313   1.157       .  T
C4309      N4311   1.158       .  T
C4310      N4312   1.158       .  T
C4315      C4316   1.411       .  A
C4315      C4320   1.422       .  A
C4316      C4317   1.415       .  A
C4316      C4321   1.450       .  S
C4317      C4318   1.419       .  A
C4317      C4324   1.448       .  S
C4318      C4319   1.414       .  A
C4319      C4320   1.409       .  A
C4319      C4322   1.453       .  S
C4321      N4328   1.157       .  T
C4323      N4325   1.158       .  T
C4324      N4326   1.156       .  T
C4329      C4330   1.411       .  A
C4329      C4334   1.413       .  A
C4330      C4331   1.415       .  A
C4330      C4335   1.445       .  S
C4331      C4332   1.411       .  A
C4331      C4338   1.451       .  S
C4332      C4333   1.409       .  A
C4333      C4334   1.419       .  A
C4333      C4336   1.445       .  S
C4334      C4337   1.447       .  S
C4335      N4342   1.156       .  T
C4336      N4341   1.156       .  T
C4337      N4339   1.156       .  T
C4338      N4340   1.157       .  T
C4343      C4344   1.424       .  A
C4343      C4348   1.421       .  A
C4344      C4345   1.415       .  A
C4344      C4349   1.449       .  S
C4345      C4346   1.406       .  A
C4345      C4352   1.450       .  S
C4346      C4347   1.406       .  A
C4347      C4348   1.407       .  A
C4347      C4350   1.449       .  S
C4348      C4351   1.450       .  S
C4349      N4356   1.157       .  T
C4350      N4355   1.156       .  T
C4351      N4353   1.157       .  T
C4352      N4354   1.157       .  T
C4357      C4358   1.415       .  A
C4357      C4362   1.415       .  A
C4358      C4359   1.403       .  A
C4359      C4360   1.410       .  A
C4360      C4361   1.410       .  A
C4361      C4362   1.414       .  A
C4361      C4364   1.447       .  S
C4362      C4365   1.449       .  S
C4363      N4370   1.157   1_545  T
C4364      N4369   1.156       .  T
C4365      N4367   1.157       .  T
C4366      N4368   1.156       .  T
C4371      C4372   1.418       .  A
C4371      C4376   1.419       .  A
C4372      C4373   1.417       .  A
C4372      C4377   1.452       .  S
C4373      C4374   1.421       .  A
C4373      C4380   1.451       .  S
C4374      C4375   1.413       .  A
C4375      C4376   1.405       .  A
C4375      C4378   1.451       .  S
C4376      C4379   1.450       .  S
C4378      N4383   1.156       .  T
C4379      N4381   1.156       .  T
C4385      C4386   1.417       .  A
C4385      C4390   1.416       .  A
C4386      C4387   1.412       .  A
C4386      C4391   1.452       .  S
C4387      C4388   1.410       .  A
C4387      C4394   1.450       .  S
C4388      C4389   1.410       .  A
C4389      C4390   1.409       .  A
C4389      C4392   1.451       .  S
C4390      C4393   1.452       .  S
C4391      N4398   1.157       .  T
C4392      N4397   1.156       .  T
C4393      N4395   1.158       .  T
C4399      C4400   1.415       .  A
C4399      C4404   1.417       .  A
C4400      C4401   1.415       .  A
C4400      C4405   1.453       .  S
C4401      C4402   1.423       .  A
C4401      C4408   1.451       .  S
C4402      C4403   1.418       .  A
C4403      C4404   1.416       .  A
C4403      C4406   1.451       .  S
C4404      C4407   1.452       .  S
C4405      N4412   1.157       .  T
C4407      N4409   1.158       .  T
C4408      N4410   1.157       .  T
C4413      C4414   1.422       .  A
C4413      C4418   1.419       .  A
C4414      C4415   1.407       .  A
C4414      C4419   1.452       .  S
C4415      C4416   1.416       .  A
C4415      C4422   1.454       .  S
C4416      C4417   1.420       .  A
C4417      C4418   1.418       .  A
C4417      C4420   1.451       .  S
C4419      N4426   1.156       .  T
C4420      N4425   1.158       .  T
C4421      N4423   1.157       .  T
C4422      N4424   1.156       .  T
C4427      C4432   1.407       .  A
C4428      C4429   1.413       .  A
C4428      C4433   1.450       .  S
C4429      C4430   1.411       .  A
C4429      C4436   1.447       .  S
C4431      C4432   1.416   1_545  A
C4431      C4434   1.450   1_545  S
C4432      C4435   1.445       .  S
C4433      N4440   1.157       .  T
C4434      N4439   1.157       .  T
C4435      N4437   1.157       .  T
C4436      N4438   1.156       .  T
C4441      C4446   1.410       .  A
C4442      C4443   1.416       .  A
C4442      C4447   1.449       .  S
C4443      C4444   1.409       .  A
C4443      C4450   1.445       .  S
C4445      C4446   1.419       .  A
C4445      C4448   1.451       .  S
C4446      C4449   1.446       .  S
C4447      N4454   1.156       .  T
C4448      N4453   1.157       .  T
C4449      N4451   1.156       .  T
C4450      N4452   1.156       .  T
C4455      C4456   1.407       .  A
C4455      C4460   1.411       .  A
C4456      C4457   1.416       .  A
C4456      C4461   1.452       .  S
C4457      C4458   1.423       .  A
C4457      C4464   1.449       .  S
C4458      C4459   1.419       .  A
C4459      C4460   1.409       .  A
C4459      C4462   1.454       .  S
C4460      C4463   1.450       .  S
C4461      N4468   1.157       .  T
C4462      N4467   1.158       .  T
C4463      N4465   1.156       .  T
C4464      N4466   1.157       .  T
C4469      C4470   1.414       .  A
C4469      C4474   1.414       .  A
C4470      C4471   1.414       .  A
C4470      C4475   1.452       .  S
C4471      C4472   1.418       .  A
C4471      C4478   1.451       .  S
C4472      C4473   1.417       .  A
C4473      C4474   1.413       .  A
C4474      C4477   1.452       .  S
C4475      N4482   1.158       .  T
C4476      N4481   1.158   1_455  T
C4477      N4479   1.157       .  T
C4478      N4480   1.157       .  T
C4483      C4484   1.420       .  A
C4483      C4488   1.413       .  A
C4484      C4485   1.414       .  A
C4485      C4486   1.413       .  A
C4486      C4487   1.404       .  A
C4487      C4488   1.400       .  A
C4487      C4490   1.450       .  S
C4488      C4491   1.443       .  S
C4489      N4496   1.157       .  T
C4490      N4495   1.157       .  T
C4491      N4493   1.154       .  T
C4492      N4494   1.157       .  T
C4497      C4498   1.427       .  A
C4497      C4502   1.420       .  A
C4498      C4499   1.419       .  A
C4498      C4503   1.450       .  S
C4499      C4500   1.405       .  A
C4499      C4506   1.449       .  S
C4500      C4501   1.409       .  A
C4501      C4502   1.401       .  A
C4501      C4504   1.451       .  S
C4503      N4510   1.157       .  T
C4504      N4509   1.156       .  T
C4505      N4507   1.157       .  T
C4506      N4508   1.157       .  T
C4511      C4512   1.416       .  A
C4511      C4516   1.411       .  A
C4512      C4513   1.405       .  A
C4512      C4517   1.443       .  S
C4513      C4514   1.404       .  A
C4513      C4520   1.453       .  S
C4514      C4515   1.411       .  A
C4515      C4516   1.417       .  A
C4515      C4518   1.446       .  S
C4516      C4519   1.447       .  S
C4517      N4524   1.154       .  T
C4518      N4523   1.157       .  T
C4519      N4521   1.157       .  T
C4520      N4522   1.157       .  T
C4525      C4526   1.424       .  A
C4525      C4530   1.422       .  A
C4526      C4527   1.411       .  A
C4526      C4531   1.452       .  S
C4527      C4528   1.411       .  A
C4527      C4534   1.451       .  S
C4528      C4529   1.412       .  A
C4529      C4530   1.412       .  A
C4529      C4532   1.450       .  S
C4530      C4533   1.454       .  S
C4531      N4538   1.158       .  T
C4532      N4537   1.157       .  T
C4533      N4535   1.157       .  T
C4539      C4540   1.415       .  A
C4539      C4544   1.413       .  A
C4540      C4541   1.412       .  A
C4540      C4545   1.449       .  S
C4541      C4542   1.411       .  A
C4541      C4548   1.451       .  S
C4542      C4543   1.416       .  A
C4543      C4544   1.403       .  A
C4543      C4546   1.454       .  S
C4544      C4547   1.454       .  S
C4545      N4552   1.157       .  T
C4546      N4551   1.157       .  T
C4547      N4549   1.158       .  T
C4548      N4550   1.158       .  T
C4553      C4554   1.422       .  A
C4553      C4558   1.423       .  A
C4554      C4555   1.418       .  A
C4554      C4559   1.451       .  S
C4555      C4556   1.419       .  A
C4555      C4562   1.451       .  S
C4556      C4557   1.410       .  A
C4557      C4558   1.399       .  A
C4557      C4560   1.452       .  S
C4558      C4561   1.452       .  S
C4559      N4566   1.158       .  T
C4561      N4563   1.157       .  T
C4562      N4564   1.158       .  T
C4567      C4568   1.426       .  A
C4567      C4572   1.420       .  A
C4569      C4570   1.412       .  A
C4569      C4576   1.459       .  S
C4571      C4572   1.427       .  A
C4571      C4574   1.448       .  S
C4572      C4575   1.447       .  S
C4573      N4580   1.158       .  T
C4574      N4579   1.157       .  T
C4575      N4577   1.157       .  T
C4576      N4578   1.158       .  T
C4581      C4582   1.409       .  A
C4582      C4587   1.449       .  S
C4583      C4584   1.411   1_545  A
C4584      C4585   1.409       .  A
C4585      C4586   1.418       .  A
C4585      C4588   1.446       .  S
C4586      C4589   1.446       .  S
C4587      N4594   1.157       .  T
C4588      N4593   1.157       .  T
C4589      N4591   1.157       .  T
C4590      N4592   1.157       .  T
C4595      C4596   1.415       .  A
C4595      C4600   1.413       .  A
C4596      C4597   1.401       .  A
C4596      C4601   1.454       .  S
C4597      C4598   1.414       .  A
C4597      C4604   1.452       .  S
C4598      C4599   1.416       .  A
C4599      C4600   1.417       .  A
C4599      C4602   1.446       .  S
C4600      C4603   1.451       .  S
C4602      N4607   1.157       .  T
C4603      N4605   1.157       .  T
C4604      N4606   1.156       .  T
