geometry optimzed in LAMMPS
_audit_creation_date              2020-11-30 
_audit_creation_method            'lammps2cif' 
_symmetry_space_group_name_H-M    'P1' 
_symmetry_Int_Tables_number       1 
_symmetry_cell_setting            triclinic 
loop_ 
_symmetry_equiv_pos_as_xyz 
  x,y,z 
_cell_length_a                    38.8075361 
_cell_length_b                    38.79193151336881 
_cell_length_c                    32.763277616110194 
_cell_angle_alpha                 87.92148895892902 
_cell_angle_beta                  89.88017492741406 
_cell_angle_gamma                 90.21796324568875 
loop_ 
_atom_site_label 
_atom_site_type_symbol 
_atom_site_fract_x 
_atom_site_fract_y 
_atom_site_fract_z 
_atom_site_charge 
N1          N  0.52965116  0.86425291  0.04037306    -0.35300
N2          N  0.45614510  0.86454135  0.03771515    -0.55900
N3          N  0.45992794  0.87036151  0.44919321    -0.35300
N4          N  0.53378838  0.87226333  0.45108231    -0.55900
C5          C  0.52141388  0.86772439  0.08023418     0.28300
C6          C  0.56161571  0.87780247  0.03462377     0.28300
C7          C  0.42830383  0.88428850  0.45322423     0.28300
C8          C  0.46858162  0.87421783  0.40940206     0.28300
C9          C  0.45921310  0.86137283  0.07882190     0.36900
C10         C  0.42221623  0.86850446  0.02954206     0.36900
C11         C  0.56778681  0.87710869  0.45813562     0.36900
C12         C  0.53010762  0.86673295  0.41071542     0.36900
C13         C  0.54774188  0.88502904  0.09950533    -0.20600
C14         C  0.57338625  0.89077753  0.07094708    -0.20600
C15         C  0.41715131  0.89790201  0.41591698    -0.20600
C16         C  0.44308055  0.89227503  0.38834916    -0.20600
C17         C  0.42727949  0.86706737  0.09651845    -0.21700
C18         C  0.40372313  0.86977671  0.06553532    -0.21700
C19         C  0.58570022  0.87677971  0.42156965    -0.21700
C20         C  0.56176005  0.87146151  0.39157087    -0.21700
C21         C  0.49095855  0.85477828  0.09957981    -0.17000
C22         C  0.58152580  0.87690668  0.99833268    -0.17000
C23         C  0.49790563  0.85939841  0.39171511    -0.17000
C24         C  0.40801652  0.87276733  0.99004182    -0.17000
H25         H  0.54855177  0.89223868  0.13107448     0.15900
H26         H  0.59794557  0.90313421  0.07625076     0.15900
H27         H  0.39269695  0.91018118  0.40926239     0.15900
H28         H  0.44263636  0.89923765  0.35608482     0.15900
H29         H  0.42122194  0.87025045  0.12834418     0.14200
H30         H  0.37639048  0.87384727  0.06939065     0.14200
H31         H  0.61298897  0.88083154  0.41658514     0.14200
H32         H  0.56718895  0.87237657  0.35917849     0.14200
H33         H  0.51608681  0.84939579  0.01998631     0.27500
H34         H  0.47259138  0.85441928  0.47050549     0.27400
N35         N  0.53003486  0.83011600  0.20342108    -0.35300
N36         N  0.45517069  0.83273216  0.20361800    -0.55900
N37         N  0.45555753  0.83482441  0.29221897    -0.35300
N38         N  0.52925896  0.82617153  0.29187807    -0.55900
C39         C  0.52416386  0.83052582  0.16269894     0.28300
C40         C  0.56201530  0.81738387  0.21017066     0.28300
C41         C  0.42229967  0.82532997  0.28686893     0.28300
C42         C  0.46184519  0.83513061  0.33277066     0.28300
C43         C  0.46258877  0.82711645  0.16416444     0.36900
C44         C  0.42406992  0.81828243  0.21133628     0.36900
C45         C  0.56097169  0.81296144  0.28664811     0.36900
C46         C  0.52305986  0.82552064  0.33243542     0.36900
C47         C  0.55263224  0.81706740  0.14323506    -0.20600
C48         C  0.57670024  0.80938604  0.17306903    -0.20600
C49         C  0.40697769  0.81990467  0.32488792    -0.20600
C50         C  0.43213830  0.82507224  0.35372874    -0.20600
C51         C  0.43722654  0.80674657  0.14745724    -0.21700
C52         C  0.41211382  0.80229086  0.17690965    -0.21700
C53         C  0.57417845  0.80206863  0.32433743    -0.21700
C54         C  0.54931588  0.80833672  0.35295237    -0.21700
C55         C  0.49240610  0.83995513  0.14378704    -0.17000
C56         C  0.57859954  0.81272413  0.24866623    -0.17000
C57         C  0.49462155  0.84185208  0.35052157    -0.17000
C58         C  0.40605001  0.81952631  0.24881939    -0.17000
H59         H  0.55540488  0.81205782  0.11112762     0.15900
H60         H  0.60176600  0.79809499  0.16816581     0.15900
H61         H  0.38085213  0.81159069  0.33141804     0.15900
H62         H  0.42909052  0.82079580  0.38634758     0.15900
H63         H  0.43657497  0.79695829  0.11694532     0.14200
H64         H  0.38821807  0.78816837  0.17374453     0.14200
H65         H  0.59902714  0.79103153  0.33132358     0.14200
H66         H  0.55120513  0.80261118  0.38544929     0.14200
H67         H  0.51423223  0.84146277  0.22450116     0.27500
H68         H  0.47261214  0.84358755  0.26988266     0.27400
N69         N  0.95490768  0.38578499  0.05313173    -0.35300
N70         N  0.95109302  0.38392903  0.46696430    -0.55900
N71         N  0.93852323  0.45729286  0.46290482    -0.35300
N72         N  0.94026392  0.45960170  0.05079247    -0.55900
C73         C  0.95946981  0.35182894  0.04639955     0.28300
C74         C  0.94576339  0.38908337  0.09286225     0.28300
C75         C  0.94130659  0.45127110  0.42255961     0.28300
C76         C  0.94394889  0.49142358  0.46771261     0.28300
C77         C  0.96987341  0.35556320  0.47611877     0.36900
C78         C  0.95587744  0.39134357  0.42681301     0.36900
C79         C  0.94615752  0.45236709  0.09075437     0.36900
C80         C  0.94770689  0.49330087  0.04360946     0.36900
C81         C  0.95549542  0.33323237  0.08287895    -0.20600
C82         C  0.94863259  0.35667947  0.11220101    -0.20600
C83         C  0.94956324  0.48194206  0.40161149    -0.20600
C84         C  0.95064461  0.50728203  0.42990034    -0.20600
C85         C  0.98764332  0.34552625  0.44179758    -0.21700
C86         C  0.97971090  0.36906377  0.41081323    -0.21700
C87         C  0.95921979  0.48140355  0.10866700    -0.21700
C88         C  0.95904848  0.50765314  0.07930656    -0.21700
C89         C  0.96621757  0.33570745  0.51284958    -0.17000
C90         C  0.93639427  0.42090412  0.11134000    -0.17000
C91         C  0.94394649  0.50885052  0.50513617    -0.17000
C92         C  0.93866213  0.41819102  0.40516229    -0.17000
H93         H  0.95852904  0.30580198  0.08859623     0.15900
H94         H  0.94835552  0.35000443  0.14440393     0.15900
H95         H  0.95497913  0.48571394  0.36939668     0.15900
H96         H  0.95682253  0.53417323  0.42349609     0.15900
H97         H  0.00381424  0.32314213  0.43912051     0.14200
H98         H  0.98906633  0.36902066  0.37970712     0.14200
H99         H  0.96609135  0.48392402  0.14034930     0.14200
H100        H  0.96644451  0.53408430  0.08406175     0.14200
H101        H  0.95923088  0.40561654  0.03174184     0.27500
H102        H  0.92995702  0.43944696  0.48500114     0.27400
N103        N  0.91242708  0.45141415  0.30182974    -0.35300
N104        N  0.90779913  0.45536426  0.21366693    -0.55900
N105        N  0.91516765  0.38218427  0.21324404    -0.35300
N106        N  0.91593806  0.37820254  0.30195135    -0.55900
C107        C  0.89508840  0.48131153  0.29564413     0.28300
C108        C  0.90786782  0.44177604  0.34154167     0.28300
C109        C  0.90709136  0.39153237  0.17432538     0.28300
C110        C  0.90044831  0.35104067  0.22109208     0.28300
C111        C  0.89896912  0.48823652  0.22037339     0.36900
C112        C  0.90920670  0.45238433  0.17273795     0.36900
C113        C  0.92228901  0.38136624  0.34235807     0.36900
C114        C  0.91380341  0.34409955  0.29491759     0.36900
C115        C  0.87868388  0.49023887  0.33129386    -0.20600
C116        C  0.88586300  0.46463104  0.36001788    -0.20600
C117        C  0.88531996  0.36731640  0.15791427    -0.20600
C118        C  0.88188451  0.34112589  0.18723615    -0.20600
C119        C  0.89273691  0.50583602  0.18359765    -0.21700
C120        C  0.89740218  0.48251075  0.15358177    -0.21700
C121        C  0.92154972  0.34876755  0.36132745    -0.21700
C122        C  0.91767343  0.32526987  0.33126705    -0.21700
C123        C  0.89500310  0.50187209  0.25937152    -0.17000
C124        C  0.92480692  0.41380400  0.36163402    -0.17000
C125        C  0.90585226  0.33012660  0.25662056    -0.17000
C126        C  0.91929567  0.42166353  0.15390671    -0.17000
H127        H  0.86297519  0.51276922  0.33592157     0.15900
H128        H  0.87686121  0.46351471  0.39132951     0.15900
H129        H  0.87437200  0.36794789  0.12753764     0.15900
H130        H  0.86760534  0.31736146  0.18400375     0.15900
H131        H  0.88434065  0.53220071  0.17873603     0.14200
H132        H  0.89234602  0.48725993  0.12141675     0.14200
H133        H  0.92124668  0.34211738  0.39357785     0.14200
H134        H  0.91606229  0.29760278  0.33623205     0.14200
H135        H  0.92999882  0.44055597  0.28194154     0.27500
H136        H  0.93310352  0.39464181  0.23131233     0.27400
N137        N  0.46993884  0.00623860  0.05236877    -0.35300
N138        N  0.54502705  0.99728121  0.05278120    -0.55900
N139        N  0.54624378  0.00351019  0.46188435    -0.35300
N140        N  0.47226683  0.01241351  0.45681935    -0.55900
C141        C  0.47400531  0.99688788  0.09236013     0.28300
C142        C  0.43605501  0.01150758  0.04510163     0.28300
C143        C  0.57947602  0.01161759  0.46968770     0.28300
C144        C  0.54204151  0.00377270  0.42089540     0.28300
C145        C  0.53624371  0.00260527  0.09193892     0.36900
C146        C  0.57550754  0.01334059  0.04618962     0.36900
C147        C  0.44248926  0.02958378  0.46056283     0.36900
C148        C  0.48217106  0.01679477  0.41763818     0.36900
C149        C  0.44209050  0.99964703  0.11133863    -0.20600
C150        C  0.41814336  0.00731711  0.08150442    -0.20600
C151        C  0.59683073  0.01662073  0.43278722    -0.20600
C152        C  0.57293859  0.01307194  0.40217895    -0.20600
C153        C  0.56081935  0.02296283  0.11011600    -0.21700
C154        C  0.58627087  0.02891844  0.08142415    -0.21700
C155        C  0.43374945  0.04590295  0.42368195    -0.21700
C156        C  0.45963151  0.03853867  0.39653306    -0.21700
C157        C  0.50642800  0.98872710  0.11133489    -0.17000
C158        C  0.42093396  0.02582573  0.49497829    -0.17000
C159        C  0.50994041  0.99888133  0.40098311    -0.17000
C160        C  0.59388765  0.01690091  0.50890873    -0.17000
H161        H  0.43623807  0.99888879  0.14353444     0.15900
H162        H  0.39090412  0.01084444  0.08677770     0.15900
H163        H  0.62352786  0.02368619  0.42797251     0.15900
H164        H  0.57767001  0.01777444  0.36989076     0.15900
H165        H  0.56055705  0.03203634  0.14097200     0.14200
H166        H  0.60947955  0.04395080  0.08552155     0.14200
H167        H  0.41073176  0.06068948  0.41693121     0.14200
H168        H  0.46081226  0.04650700  0.36455170     0.14200
H169        H  0.48936542  0.01001042  0.03111658     0.27500
H170        H  0.52764328  0.99561570  0.48295792     0.27400
N171        N  0.54363658  0.96979643  0.30148906    -0.35300
N172        N  0.54556489  0.96245475  0.21448241    -0.55900
N173        N  0.47197787  0.96531469  0.21383222    -0.35300
N174        N  0.46998923  0.96700815  0.30162406    -0.55900
C175        C  0.57556460  0.95655113  0.29697706     0.28300
C176        C  0.53578690  0.96676731  0.34161313     0.28300
C177        C  0.48049742  0.95781877  0.17518838     0.28300
C178        C  0.44099484  0.95049940  0.22177669     0.28300
C179        C  0.57957731  0.95872127  0.22156742     0.36900
C180        C  0.54161889  0.96479672  0.17351266     0.36900
C181        C  0.47396705  0.97515684  0.34118799     0.36900
C182        C  0.43575057  0.96371324  0.29486562     0.36900
C183        C  0.58769897  0.94424940  0.33443389    -0.20600
C184        C  0.56198325  0.94957931  0.36230207    -0.20600
C185        C  0.45583344  0.93641046  0.15902962    -0.20600
C186        C  0.43028745  0.93247918  0.18820687    -0.19800
C187        C  0.59719294  0.95583563  0.18511264    -0.21700
C188        C  0.57299101  0.95868417  0.15469310    -0.21700
C189        C  0.44196370  0.97385722  0.36026083    -0.21700
C190        C  0.41778039  0.96795855  0.33078985    -0.21700
C191        C  0.59491138  0.95794107  0.26054385    -0.17000
C192        C  0.50658156  0.98158073  0.35978845    -0.17000
C193        C  0.42083876  0.95578407  0.25690442    -0.17000
C194        C  0.50944972  0.97155931  0.15423709    -0.17000
H195        H  0.61241454  0.93273365  0.34131127     0.15900
H196        H  0.56310699  0.94305198  0.39462941     0.15900
H197        H  0.45559198  0.92652430  0.12861614     0.15900
H198        H  0.40630838  0.91857213  0.18487169     0.15900
H199        H  0.62448436  0.95144448  0.18095784     0.14200
H200        H  0.57811496  0.95592448  0.12254379     0.14200
H201        H  0.43627790  0.97499056  0.39240682     0.14200
H202        H  0.39030969  0.96568363  0.33586008     0.14200
H203        H  0.53007668  0.98469604  0.27992020     0.27500
H204        H  0.48447760  0.98351995  0.23121963     0.27400
N205        N  0.08133819  0.37053043  0.44887525    -0.35300
N206        N  0.09135343  0.37725259  0.03422493    -0.55900
N207        N  0.07902727  0.44968896  0.03032889    -0.35300
N208        N  0.07869541  0.44391909  0.44187019    -0.55900
C209        C  0.10006753  0.34218418  0.45890657     0.28300
C210        C  0.08488809  0.37635209  0.40815048     0.28300
C211        C  0.08308137  0.44291808  0.07091019     0.28300
C212        C  0.09094293  0.48212575  0.02207672     0.28300
C213        C  0.10271046  0.34477795  0.02993881     0.36900
C214        C  0.08767543  0.38147900  0.07475380     0.36900
C215        C  0.07808903  0.43727952  0.40164122     0.36900
C216        C  0.08583076  0.47785228  0.44444396     0.36900
C217        C  0.11622990  0.33031456  0.42438864    -0.20600
C218        C  0.10755024  0.35265207  0.39249633    -0.20600
C219        C  0.09942495  0.47051185  0.08832065    -0.20600
C220        C  0.10295359  0.49579510  0.05803124    -0.20600
C221        C  0.10848117  0.32903961  0.06794432    -0.21700
C222        C  0.10040681  0.35285195  0.09623419    -0.21700
C223        C  0.08788437  0.46650415  0.37881563    -0.21700
C224        C  0.09193009  0.49242405  0.40583457    -0.21700
C225        C  0.10742518  0.32904433  0.99221665    -0.17000
C226        C  0.07030387  0.40451930  0.38601269    -0.17000
C227        C  0.09047500  0.49995665  0.98332754    -0.17000
C228        C  0.07381127  0.41153286  0.09175145    -0.17000
H229        H  0.13318175  0.30831382  0.42270139     0.15900
H230        H  0.11689739  0.35168759  0.36141222     0.15900
H231        H  0.10745977  0.47241171  0.11978008     0.15900
H232        H  0.11376317  0.52107464  0.06239169     0.15900
H233        H  0.11804726  0.30337714  0.07491314     0.14200
H234        H  0.10366709  0.34928780  0.12888645     0.14200
H235        H  0.09206613  0.46886180  0.34617388     0.14200
H236        H  0.09939868  0.51875817  0.39802789     0.14200
H237        H  0.06409330  0.38322671  0.46749547     0.27500
H238        H  0.06547718  0.43413248  0.01066428     0.27400
N239        N  0.04476741  0.44444773  0.19511421    -0.35300
N240        N  0.04037467  0.43842467  0.28367484    -0.55900
N241        N  0.05241587  0.36493118  0.28267607    -0.35300
N242        N  0.05070168  0.36979513  0.19360580    -0.55900
C243        C  0.03503944  0.47708294  0.20250061     0.28300
C244        C  0.04720810  0.44114523  0.15427993     0.28300
C245        C  0.05271676  0.36883107  0.32355072     0.28300
C246        C  0.04904486  0.33099641  0.27535813     0.28300
C247        C  0.02709589  0.47034796  0.27823278     0.36900
C248        C  0.03808188  0.42986784  0.32389321     0.36900
C249        C  0.04657204  0.37829688  0.15351879     0.36900
C250        C  0.04281896  0.33596722  0.19904608     0.36900
C251        C  0.03117255  0.49504132  0.16547828    -0.20600
C252        C  0.03719549  0.47201777  0.13531491    -0.20600
C253        C  0.04819923  0.33664166  0.34269158    -0.20600
C254        C  0.04726425  0.31280269  0.31260752    -0.20600
C255        C  0.01454868  0.48157123  0.31503993    -0.21700
C256        C  0.02057023  0.45549921  0.34370032    -0.21700
C257        C  0.03364336  0.35001613  0.13371409    -0.21700
C258        C  0.03211245  0.32301307  0.16226070    -0.21700
C259        C  0.02937685  0.49088272  0.24160899    -0.17000
C260        C  0.05714301  0.41041786  0.13461131    -0.17000
C261        C  0.04686290  0.31619365  0.23617404    -0.17000
C262        C  0.05508536  0.40113662  0.34303403    -0.17000
H263        H  0.02332855  0.52149106  0.16011247     0.15900
H264        H  0.03327728  0.47747784  0.10307773     0.15900
H265        H  0.04466205  0.33062615  0.37489531     0.15900
H266        H  0.04453124  0.28532484  0.31818271     0.15900
H267        H  0.00309266  0.50629519  0.32081181     0.14200
H268        H  0.01455582  0.45612324  0.37591191     0.14200
H269        H  0.02737432  0.34868471  0.10165365     0.14200
H270        H  0.02408301  0.29686746  0.15660644     0.14200
H271        H  0.05311238  0.42617687  0.21685844     0.27500
H272        H  0.05783863  0.38444474  0.26097960     0.27400
O273        O  0.85784729  0.84218595  0.46756922    -0.71700
O274        O  0.96122954  0.83290029  0.46229179    -0.72600
O275        O  0.90592888  0.78518147  0.46488735    -0.61300
O276        O  0.91358959  0.88921375  0.46660960    -0.69700
O277        O  0.91288226  0.88940437  0.03541400    -0.69200
O278        O  0.90669566  0.78595229  0.03441701    -0.60500
O279        O  0.96189950  0.83416877  0.03378127    -0.73000
O280        O  0.85759474  0.84158344  0.03543294    -0.71800
Cu281      Cu  0.90948017  0.83738872  0.46303778     1.04600
Cu282      Cu  0.90969824  0.83760721  0.03707209     1.04300
C283        C  0.84073383  0.84489996  0.00196118     0.94500
C284        C  0.97758758  0.83409591  0.99937911     0.93700
C285        C  0.90650951  0.77023174  0.00079104     0.85800
C286        C  0.91290604  0.90704989  0.00173196     0.92100
O287        O  0.85477551  0.83014765  0.29464759    -0.71700
O288        O  0.95837478  0.82574095  0.29042624    -0.72600
O289        O  0.90997663  0.87985911  0.29152277    -0.61300
O290        O  0.90377168  0.77673189  0.29385755    -0.69700
O291        O  0.90231111  0.77748946  0.22632351    -0.69200
O292        O  0.90878777  0.88061727  0.22372375    -0.60500
O293        O  0.95664915  0.82651042  0.22262318    -0.73000
O294        O  0.85420415  0.83120879  0.22711135    -0.71800
Cu295      Cu  0.90678572  0.82818438  0.29502584     1.04600
Cu296      Cu  0.90538054  0.82909318  0.22264509     1.04300
C297        C  0.83799218  0.83020931  0.26108888     0.94500
C298        C  0.97369866  0.82539109  0.25586778     0.93700
C299        C  0.91114321  0.89642187  0.25713833     0.85800
C300        C  0.90165034  0.76068866  0.26058678     0.92100
O301        O  0.87109921  0.01735870  0.03914948    -0.71700
O302        O  0.97367038  0.00591939  0.03574231    -0.72600
O303        O  0.92943385  0.06297406  0.03820448    -0.61300
O304        O  0.91674943  0.95983249  0.03648402    -0.69700
O305        O  0.91699319  0.95986983  0.46902132    -0.69200
O306        O  0.92705205  0.06286023  0.47268309    -0.60500
O307        O  0.97284004  0.00683321  0.46926632    -0.73000
O308        O  0.86982729  0.01601700  0.47308209    -0.71800
Cu309      Cu  0.92257646  0.01139454  0.03974475     1.04600
Cu310      Cu  0.92146161  0.01153254  0.46871630     1.04300
C311        C  0.85412801  0.01582176  0.50745884     0.94500
C312        C  0.98987748  0.00360276  0.50249439     0.93700
C313        C  0.93089892  0.07742947  0.50676286     0.85800
C314        C  0.91482321  0.94499164  0.00232822     0.92100
O315        O  0.91880008  0.05379369  0.21675035    -0.71700
O316        O  0.91625632  0.95029247  0.22128389    -0.72600
O317        O  0.86637210  0.00219728  0.22081727    -0.61300
O318        O  0.96997595  0.00039775  0.21752281    -0.69700
O319        O  0.97126497  0.99997017  0.28525053    -0.69200
O320        O  0.86761376  0.00295273  0.28845446    -0.60500
O321        O  0.91707824  0.95012944  0.28908027    -0.73000
O322        O  0.92062819  0.05382159  0.28425184    -0.71800
Cu323      Cu  0.91796517  0.00185991  0.21675127     1.04600
Cu324      Cu  0.91936463  0.00189613  0.28911114     1.04300
C325        C  0.91928234  0.07034358  0.24978759     0.94500
C326        C  0.91512143  0.93400709  0.25583252     0.93700
C327        C  0.85065879  0.00153798  0.25516320     0.85800
C328        C  0.98694268  0.99892868  0.25095259     0.92100
O329        O  0.14519019  0.99822587  0.45885375    -0.71700
O330        O  0.04239305  0.00277345  0.46593288    -0.72600
O331        O  0.09668217  0.05157182  0.46559584    -0.61300
O332        O  0.09035861  0.94887939  0.45972236    -0.69700
O333        O  0.09256641  0.94919117  0.03084590    -0.69200
O334        O  0.09686095  0.05251064  0.03279400    -0.60500
O335        O  0.04348260  0.00242075  0.03353714    -0.73000
O336        O  0.14642668  0.99977105  0.03063009    -0.71800
Cu337      Cu  0.09358023  0.00044306  0.46024613     1.04600
Cu338      Cu  0.09492433  0.00075920  0.03431841     1.04300
C339        C  0.16331739  0.99641434  0.49134738     0.94500
C340        C  0.02668260  0.00421531  0.00009080     0.93700
C341        C  0.09910824  0.06587438  0.50000028     0.85800
C342        C  0.09041036  0.93029222  0.49269690     0.92100
O343        O  0.04171458  0.99387006  0.28342575    -0.71700
O344        O  0.14550732  0.98695551  0.28043396    -0.72600
O345        O  0.09595584  0.04266375  0.27968075    -0.61300
O346        O  0.09034520  0.93829865  0.28391384    -0.69700
O347        O  0.08912386  0.93897187  0.21618337    -0.69200
O348        O  0.09487663  0.04243635  0.21222270    -0.60500
O349        O  0.14438361  0.98712610  0.21297869    -0.73000
O350        O  0.04046838  0.99413950  0.21570825    -0.71800
Cu351      Cu  0.09359259  0.99046556  0.28423159     1.04600
Cu352      Cu  0.09232072  0.99070591  0.21199742     1.04300
C353        C  0.02479171  0.99556805  0.24997736     0.94500
C354        C  0.16145072  0.98505964  0.24635536     0.93700
C355        C  0.09455365  0.05912816  0.24514322     0.85800
C356        C  0.08871847  0.92227048  0.25051223     0.92100
O357        O  0.03348468  0.82877585  0.03034473    -0.71700
O358        O  0.13785974  0.82711991  0.02207204    -0.72600
O359        O  0.08772766  0.87892870  0.02863246    -0.61300
O360        O  0.08456342  0.77556848  0.02443041    -0.69700
O361        O  0.08418205  0.77562093  0.44837211    -0.69200
O362        O  0.08402959  0.87912469  0.45582468    -0.60500
O363        O  0.13547963  0.82901015  0.44786124    -0.73000
O364        O  0.03146869  0.82744176  0.45688618    -0.71800
Cu365      Cu  0.08593182  0.82726009  0.02876122     1.04600
Cu366      Cu  0.08346701  0.82776056  0.44986578     1.04300
C367        C  0.01561531  0.83146147  0.99756524     0.94500
C368        C  0.15219450  0.83109839  0.98696629     0.93700
C369        C  0.08718775  0.89712630  0.99538399     0.85800
C370        C  0.08293576  0.76106856  0.99005474     0.92100
O371        O  0.13066389  0.80928344  0.28254079    -0.71700
O372        O  0.02836140  0.82089520  0.28740085    -0.72600
O373        O  0.07272700  0.76360892  0.28446240    -0.61300
O374        O  0.08545938  0.86700707  0.28510668    -0.69700
O375        O  0.08338270  0.86900967  0.21737708    -0.69200
O376        O  0.07137478  0.76595915  0.21694444    -0.60500
O377        O  0.02642242  0.82277368  0.21959373    -0.73000
O378        O  0.12919501  0.81185344  0.21502290    -0.71800
Cu379      Cu  0.07950018  0.81511445  0.28720903     1.04600
Cu380      Cu  0.07763393  0.81751157  0.21487958     1.04300
C381        C  0.14635192  0.80890211  0.24823334     0.94500
C382        C  0.01124288  0.82310924  0.25421966     0.93700
C383        C  0.06915070  0.74845722  0.25066869     0.85800
C384        C  0.08587553  0.88433261  0.25114327     0.92100
C385        C  0.05055661  0.65578906  0.28750551     0.14000
C386        C  0.04500532  0.63925600  0.25059171     0.00900
C387        C  0.04761102  0.65869267  0.21368933     0.15900
C388        C  0.05556179  0.69396033  0.21360382     0.25300
C389        C  0.06149044  0.71066901  0.25058069    -0.41000
C390        C  0.05886761  0.69095851  0.28755103     0.32400
C391        C  0.03892751  0.60135601  0.25036217     0.01000
F392        F  0.04353798  0.64324668  0.17746866    -0.13300
F393        F  0.06441076  0.70554470  0.32399065    -0.13900
C394        C  0.00998971  0.58740769  0.23077598     0.15900
C395        C  0.00577698  0.55150759  0.22883034     0.25300
C396        C  0.03087274  0.52909291  0.24562957    -0.41000
C397        C  0.05928299  0.54315458  0.26588269     0.32300
C398        C  0.06318904  0.57878511  0.26840874     0.14000
F399        F  0.98585869  0.60856718  0.21355045    -0.13300
F400        F  0.08398067  0.52218523  0.28226459    -0.13800
F401        F  0.97748942  0.53868424  0.21023289    -0.16100
F402        F  0.09161201  0.59127686  0.28703102    -0.14700
F403        F  0.04784780  0.63781357  0.32371722    -0.14700
F404        F  0.05760344  0.71154508  0.17708475    -0.16100
C405        C  0.08897044  0.23020743  0.21619294     0.14000
C406        C  0.06627536  0.20650537  0.23566766     0.00900
C407        C  0.03556240  0.21877163  0.25278226     0.15900
C408        C  0.02808934  0.25417043  0.25122744     0.25300
C409        C  0.05164505  0.27804397  0.23352221    -0.41000
C410        C  0.08183871  0.26559190  0.21537636     0.32400
C411        C  0.07482765  0.16910259  0.23829078     0.01000
F412        F  0.01285277  0.19642531  0.27112833    -0.13300
F413        F  0.10513354  0.28794904  0.19814157    -0.13900
C414        C  0.07869342  0.15169839  0.27639601     0.15900
C415        C  0.08635346  0.11634658  0.27880037     0.25300
C416        C  0.09030195  0.09748927  0.24298790    -0.41000
C417        C  0.08687288  0.11535421  0.20482014     0.32300
C418        C  0.07926624  0.15064109  0.20260574     0.14000
F419        F  0.07509270  0.16901435  0.31143007    -0.13300
F420        F  0.08988575  0.09862843  0.16930883    -0.13800
F421        F  0.08907351  0.10057553  0.31632741    -0.16100
F422        F  0.07508810  0.16660888  0.16538301    -0.14700
F423        F  0.11875074  0.21918240  0.19927314    -0.14700
F424        F  0.99850392  0.26527481  0.26843497    -0.16100
C425        C  0.10249266  0.66218088  0.51166220     0.14000
C426        C  0.08680022  0.64973512  0.98404807     0.00900
C427        C  0.07679823  0.67024715  0.94983988     0.15900
C428        C  0.07478070  0.70618406  0.95205106     0.25300
C429        C  0.08326471  0.72265600  0.98841498    -0.41000
C430        C  0.10035094  0.69816048  0.51318325     0.32400
C431        C  0.08870861  0.61145755  0.98185813     0.01000
F432        F  0.06955460  0.65554488  0.91385181    -0.13300
F433        F  0.10898670  0.71318333  0.54853831    -0.13900
C434        C  0.06276143  0.58955081  0.46657314     0.15900
C435        C  0.06153925  0.55348920  0.46765760     0.25300
C436        C  0.09088624  0.53851119  0.98183136    -0.41000
C437        C  0.12027223  0.55749131  0.99239029     0.32300
C438        C  0.11904338  0.59361470  0.99300792     0.14000
F439        F  0.03354041  0.60752618  0.45807525    -0.13300
F440        F  0.15014253  0.54103614  0.00201206    -0.13800
F441        F  0.03153798  0.53732973  0.45867092    -0.16100
F442        F  0.14767071  0.61122322  0.00395098    -0.14700
F443        F  0.11181236  0.64366905  0.54581199    -0.14700
F444        F  0.06426214  0.72475566  0.91846292    -0.16100
C445        C  0.10303322  0.16024771  0.46545519     0.14000
C446        C  0.10530173  0.18077897  0.99802885     0.00900
C447        C  0.10445631  0.16191948  0.03532978     0.15900
C448        C  0.10162026  0.12596146  0.03591307     0.25300
C449        C  0.09935017  0.10836293  0.99901128    -0.41000
C450        C  0.10045741  0.12443702  0.46469864     0.32400
C451        C  0.10665901  0.21867032  0.99692911     0.01000
F452        F  0.10554660  0.17841867  0.07116520    -0.13300
F453        F  0.09624244  0.10992339  0.42793934    -0.13900
C454        C  0.07749322  0.23239378  0.48640352     0.15900
C455        C  0.07682597  0.26824210  0.48459521     0.25300
C456        C  0.10889417  0.29094944  0.99205692    -0.41000
C457        C  0.13746325  0.27234101  0.00703408     0.32300
C458        C  0.13615675  0.23626246  0.00997163     0.14000
F459        F  0.04996616  0.21471348  0.47227373    -0.13300
F460        F  0.16621679  0.28912077  0.01919833    -0.13800
F461        F  0.04879973  0.28443406  0.46854064    -0.16100
F462        F  0.16368697  0.21846686  0.02498681    -0.14700
F463        F  0.10170492  0.17899328  0.42966187    -0.14700
F464        F  0.10090921  0.10857726  0.07262781    -0.16100
C465        C  0.25311704  0.96841685  0.20835580     0.14000
C466        C  0.27189469  0.96669751  0.24505539     0.00900
C467        C  0.25434840  0.97150493  0.28194792     0.15900
C468        C  0.21882264  0.97786281  0.28235030     0.25300
C469        C  0.19968619  0.97952189  0.24568062    -0.41000
C470        C  0.21746361  0.97460701  0.20861228     0.32400
C471        C  0.30998404  0.96160341  0.24517427     0.01000
F472        F  0.27189502  0.97094988  0.31778331    -0.13300
F473        F  0.20044466  0.97548026  0.17242523    -0.13900
C474        C  0.33161961  0.98550046  0.22430806     0.15900
C475        C  0.36748012  0.98298916  0.22782492     0.25300
C476        C  0.38256054  0.95646169  0.25210370    -0.41000
C477        C  0.36107014  0.93191372  0.27205301     0.32300
C478        C  0.32508579  0.93442827  0.26855813     0.14000
F479        F  0.31799913  0.01228790  0.20200196    -0.13300
F480        F  0.37494396  0.90585523  0.29533726    -0.13800
F481        F  0.38760377  0.00737027  0.20874181    -0.16100
F482        F  0.30490951  0.91044225  0.28822250    -0.14700
F483        F  0.26925085  0.96368998  0.17217052    -0.14700
F484        F  0.20335815  0.98256923  0.31891498    -0.16100
C485        C  0.76098093  0.97035888  0.22977732     0.14000
C486        C  0.74145440  0.98347417  0.26170872     0.00900
C487        C  0.75759929  0.00368791  0.29083791     0.15900
C488        C  0.79310065  0.01009669  0.28856427     0.25300
C489        C  0.81278933  0.99705200  0.25646419    -0.41000
C490        C  0.79627244  0.97732340  0.22691393     0.32400
C491        C  0.70401003  0.97684570  0.26373565     0.01000
F492        F  0.73899319  0.01679470  0.32176575    -0.13300
F493        F  0.81449501  0.96361921  0.19604715    -0.13900
C494        C  0.69124510  0.94362270  0.27371207     0.15900
C495        C  0.65568748  0.93718868  0.27348825     0.25300
C496        C  0.63264066  0.96387581  0.26312165    -0.41000
C497        C  0.64549288  0.99723765  0.25415279     0.32300
C498        C  0.68090292  0.00365963  0.25436120     0.14000
F499        F  0.71326898  0.91757906  0.28377875    -0.13300
F500        F  0.62356469  0.02357322  0.24490778    -0.13800
F501        F  0.64373140  0.90511236  0.28348369    -0.16100
F502        F  0.69275027  0.03587542  0.24445781    -0.14700
F503        F  0.74575290  0.95089167  0.20123156    -0.14700
F504        F  0.80813428  0.02924418  0.31754326    -0.16100
C505        C  0.25543186  0.00403666  0.03331031     0.14000
C506        C  0.27372162  0.00966718  0.48385663     0.00900
C507        C  0.25388500  0.00959125  0.44812712     0.15900
C508        C  0.21817941  0.00447298  0.45035456     0.25300
C509        C  0.20162854  0.99869318  0.48851785    -0.41000
C510        C  0.21974304  0.99905551  0.03272526     0.32400
C511        C  0.31124872  0.01656985  0.48203277     0.01000
F512        F  0.26898236  0.01549055  0.41108518    -0.13300
F513        F  0.20387464  0.98794526  0.06778393    -0.13900
C514        C  0.33121365  0.99618099  0.97583068     0.15900
C515        C  0.36706955  0.99777334  0.97812272     0.25300
C516        C  0.38316944  0.02486910  0.48767136    -0.41000
C517        C  0.36110571  0.04944344  0.50395483     0.32300
C518        C  0.32533087  0.04509513  0.50158304     0.14000
F519        F  0.31621966  0.97170112  0.95309595    -0.13300
F520        F  0.37426187  0.07696908  0.52314640    -0.13800
F521        F  0.38603483  0.97454853  0.95775126    -0.16100
F522        F  0.30435183  0.06838978  0.51890799    -0.14700
F523        F  0.27297509  0.99750603  0.06855525    -0.14700
F524        F  0.19987465  0.00610412  0.41507085    -0.16100
C525        C  0.68576828  0.05041975  0.49522134     0.14000
C526        C  0.70469010  0.02315953  0.51349296     0.00900
C527        C  0.68787502  0.99613235  0.03101087     0.15900
C528        C  0.65199155  0.99333010  0.03022553     0.25300
C529        C  0.63199547  0.02073321  0.51262518    -0.41000
C530        C  0.64963600  0.04948615  0.49536773     0.32400
C531        C  0.74286264  0.02305737  0.51170229     0.01000
F532        F  0.70657116  0.96998633  0.04837218    -0.13300
F533        F  0.63184207  0.07617886  0.47782723    -0.13900
C534        C  0.76238359  0.02642373  0.54733998     0.15900
C535        C  0.79843120  0.02444364  0.54603313     0.25300
C536        C  0.81577151  0.01894485  0.50885806    -0.41000
C537        C  0.79576840  0.02604428  0.97151525     0.32300
C538        C  0.75972338  0.02713101  0.97329795     0.14000
F539        F  0.74643432  0.03181426  0.58347228    -0.13300
F540        F  0.81109902  0.02629563  0.93422050    -0.13800
F541        F  0.81622053  0.02807712  0.58126358    -0.16100
F542        F  0.74142736  0.02744672  0.93799498    -0.14700
F543        F  0.70234332  0.07776822  0.47700366    -0.14700
F544        F  0.63671195  0.96482916  0.04755523    -0.16100
C545        C  0.92046535  0.16353067  0.28257693     0.14000
C546        C  0.91002907  0.18146249  0.24678241     0.00900
C547        C  0.90370195  0.16301512  0.21146469     0.15900
C548        C  0.90721520  0.12703279  0.21212779     0.25300
C549        C  0.91727612  0.10876470  0.24825358    -0.41000
C550        C  0.92401699  0.12762979  0.28341755     0.32400
C551        C  0.90662608  0.21952293  0.24646641     0.01000
F552        F  0.89345643  0.17981559  0.17650784    -0.13300
F553        F  0.93430382  0.11148209  0.31874827    -0.13900
C554        C  0.92971124  0.24047105  0.22363886     0.15900
C555        C  0.92897857  0.27634189  0.22673368     0.25300
C556        C  0.90482393  0.29195047  0.25229567    -0.41000
C557        C  0.88044517  0.27107157  0.27333666     0.32300
C558        C  0.88167380  0.23508633  0.27091243     0.14000
F559        F  0.95395504  0.22606113  0.19972652    -0.13300
F560        F  0.85580774  0.28553174  0.29662130    -0.13800
F561        F  0.95271971  0.29586418  0.20585043    -0.16100
F562        F  0.85866569  0.21533362  0.29262963    -0.14700
F563        F  0.92776342  0.18098540  0.31670838    -0.14700
F564        F  0.89991770  0.11013567  0.17758989    -0.16100
C565        C  0.92055405  0.59339398  0.28039711     0.14000
C566        C  0.89189537  0.61196196  0.26580390     0.00900
C567        C  0.86301232  0.59417077  0.25142504     0.15900
C568        C  0.86327158  0.55815597  0.25035537     0.25300
C569        C  0.89259949  0.53972294  0.26317802    -0.41000
C570        C  0.92081503  0.55749943  0.27926424     0.32400
C571        C  0.89273712  0.64994224  0.26451485     0.01000
F572        F  0.83467668  0.61175795  0.23843515    -0.13300
F573        F  0.94893018  0.53999931  0.29308550    -0.13900
C574        C  0.89365989  0.66827202  0.22686005     0.15900
C575        C  0.89641548  0.70421725  0.22542416     0.25300
C576        C  0.89819794  0.72251965  0.26185369    -0.41000
C577        C  0.89638738  0.70382999  0.29961711     0.32300
C578        C  0.89392706  0.66788851  0.30082166     0.14000
F579        F  0.89269550  0.65121020  0.19140353    -0.13300
F580        F  0.89687856  0.72015488  0.33556546    -0.13800
F581        F  0.89751112  0.72088794  0.18827570    -0.16100
F582        F  0.89248723  0.65051281  0.33752109    -0.14700
F583        F  0.94865357  0.61014306  0.29457129    -0.14700
F584        F  0.83521941  0.54127001  0.23639239    -0.16100
C585        C  0.98526664  0.23988511  0.53221927     0.14000
C586        C  0.95979454  0.22468725  0.50798784     0.00900
C587        C  0.94274383  0.24705801  0.97996746     0.15900
C588        C  0.94438460  0.28296317  0.98093985     0.25300
C589        C  0.96611052  0.29734045  0.50985396    -0.41000
C590        C  0.98858188  0.27595078  0.53289492     0.32400
C591        C  0.95466040  0.18662834  0.50820102     0.01000
F592        F  0.91771793  0.23221994  0.95751209    -0.13300
F593        F  0.01324868  0.28999555  0.55654132    -0.13900
C594        C  0.95050900  0.17107815  0.04118761     0.15900
C595        C  0.94127111  0.13610436  0.04123188     0.25300
C596        C  0.93868508  0.11514863  0.50732735    -0.41000
C597        C  0.94667653  0.13399416  0.47079612     0.32300
C598        C  0.95485025  0.16915316  0.47136305     0.14000
F599        F  0.94790186  0.18834314  0.07637384    -0.13300
F600        F  0.94693948  0.11849857  0.43429060    -0.13800
F601        F  0.93064621  0.12054137  0.07687522    -0.16100
F602        F  0.96303679  0.18623028  0.43571003    -0.14700
F603        F  0.00690552  0.21980534  0.55517916    -0.14700
F604        F  0.92051395  0.30182384  0.95982331    -0.16100
C605        C  0.90283241  0.59657783  0.48705947     0.14000
C606        C  0.92872382  0.61924071  0.49958461     0.00900
C607        C  0.96042128  0.60558963  0.51324339     0.15900
C608        C  0.96608237  0.56986409  0.51429662     0.25300
C609        C  0.93971084  0.54714725  0.50297370    -0.41000
C610        C  0.90816994  0.56092618  0.48907074     0.32400
C611        C  0.92225043  0.65698892  0.49927108     0.01000
F612        F  0.98597032  0.62693155  0.52529499    -0.13300
F613        F  0.88224240  0.53963038  0.47794900    -0.13900
C614        C  0.92484137  0.67780025  0.03757056     0.15900
C615        C  0.91975075  0.71351119  0.03732025     0.25300
C616        C  0.90891452  0.73173331  0.00150384    -0.41000
C617        C  0.90820641  0.71093238  0.46252829     0.32300
C618        C  0.91435295  0.67531257  0.46270239     0.14000
F619        F  0.93535269  0.66125353  0.07257207    -0.13300
F620        F  0.90103414  0.72758714  0.42641596    -0.13800
F621        F  0.92658539  0.73028330  0.07206420    -0.16100
F622        F  0.91346758  0.65880186  0.42688001    -0.14700
F623        F  0.86611311  0.60984079  0.99001886    -0.14700
F624        F  0.99715690  0.55750416  0.52667119    -0.16100
C625        C  0.23981917  0.80417714  0.28289741     0.14000
C626        C  0.25755402  0.80500522  0.24553859     0.00900
C627        C  0.23873262  0.80518152  0.20897568     0.15900
C628        C  0.20263847  0.80522728  0.20970808     0.25300
C629        C  0.18461799  0.80582675  0.24718337    -0.41000
C630        C  0.20380244  0.80473803  0.28381000     0.32400
C631        C  0.29564106  0.80760395  0.24488457     0.01000
F632        F  0.25539080  0.80549068  0.17247241    -0.13300
F633        F  0.18790440  0.80499683  0.32074359    -0.13900
C634        C  0.31610225  0.78081359  0.26165086     0.15900
C635        C  0.35207140  0.78427075  0.26277371     0.25300
C636        C  0.36796461  0.81473826  0.24756345    -0.41000
C637        C  0.34748416  0.84107840  0.22985965     0.32300
C638        C  0.31163879  0.83764316  0.22872430     0.14000
F639        F  0.30118603  0.75126319  0.27663383    -0.13300
F640        F  0.36232318  0.87028953  0.21385284    -0.13800
F641        F  0.37140298  0.75796002  0.27858463    -0.16100
F642        F  0.29242292  0.86401375  0.21275219    -0.14700
F643        F  0.25747747  0.80414845  0.31863717    -0.14700
F644        F  0.18551187  0.80508410  0.17361483    -0.16100
C645        C  0.67195239  0.78749996  0.27034939     0.14000
C646        C  0.68921146  0.81764135  0.25648844     0.00900
C647        C  0.67036044  0.84440512  0.23731595     0.15900
C648        C  0.63463326  0.84199832  0.23403849     0.25300
C649        C  0.61702009  0.81239570  0.24898817    -0.41000
C650        C  0.63615243  0.78450357  0.26561812     0.32400
C651        C  0.72716595  0.82043283  0.25874800     0.01000
F652        F  0.68661648  0.87318111  0.22216804    -0.13300
F653        F  0.62021005  0.75451938  0.27730806    -0.13900
C654        C  0.74623550  0.82303104  0.22245123     0.15900
C655        C  0.78193441  0.82665545  0.22337035     0.25300
C656        C  0.79967627  0.82787486  0.26089353    -0.41000
C657        C  0.78039327  0.82504721  0.29752968     0.32300
C658        C  0.74439149  0.82146867  0.29638237     0.14000
F659        F  0.73014730  0.82161417  0.18577474    -0.13300
F660        F  0.79621221  0.82541174  0.33444867    -0.13800
F661        F  0.79898862  0.82843565  0.18713183    -0.16100
F662        F  0.72631442  0.81955128  0.33193859    -0.14700
F663        F  0.68989700  0.76073712  0.28749284    -0.14700
F664        F  0.61702683  0.86899133  0.21680156    -0.16100
C665        C  0.32333216  0.83984512  0.46115836     0.14000
C666        C  0.29841418  0.86017451  0.97863352     0.00900
C667        C  0.31178700  0.89034513  0.99522681     0.15900
C668        C  0.34750259  0.89521414  0.99796291     0.25300
C669        C  0.37013147  0.86986802  0.98442462    -0.41000
C670        C  0.35853255  0.84656822  0.46503900     0.32400
C671        C  0.26108713  0.85266030  0.98028811     0.01000
F672        F  0.29026862  0.91437459  0.01013827    -0.13300
F673        F  0.38147197  0.82280696  0.45243148    -0.13900
C674        C  0.24471126  0.84942174  0.51367847     0.15900
C675        C  0.20998460  0.83985997  0.51508949     0.25300
C676        C  0.18996222  0.83695038  0.98368398    -0.41000
C677        C  0.20346122  0.85900265  0.95226417     0.32300
C678        C  0.23871887  0.86686215  0.95072588     0.14000
F679        F  0.26177698  0.85402917  0.54923029    -0.13300
F680        F  0.18237195  0.87400029  0.92382266    -0.13800
F681        F  0.19455054  0.83651964  0.55225302    -0.16100
F682        F  0.25105742  0.88832922  0.92040591    -0.14700
F683        F  0.31299949  0.80973583  0.44508830    -0.14700
F684        F  0.36007205  0.92388914  0.01527238    -0.16100
C685        C  0.75058104  0.86666194  0.46635444     0.14000
C686        C  0.73063810  0.86503426  0.00403734     0.00900
C687        C  0.74866234  0.85729049  0.04039555     0.15900
C688        C  0.78411017  0.85043723  0.03973981     0.25300
C689        C  0.80265212  0.85127785  0.00257082    -0.41000
C690        C  0.78584444  0.85854047  0.46580740     0.32400
C691        C  0.69249591  0.86978228  0.00466040     0.01000
F692        F  0.73187653  0.85653996  0.07682911    -0.13300
F693        F  0.80172805  0.85675639  0.42898622    -0.13900
C694        C  0.67280829  0.84778160  0.52064344     0.15900
C695        C  0.63687996  0.85099392  0.51905061     0.25300
C696        C  0.61984270  0.87618725  0.00252220    -0.41000
C697        C  0.64095888  0.90304915  0.98670918     0.32300
C698        C  0.67701655  0.89983190  0.98762817     0.14000
F699        F  0.68660480  0.81837966  0.53720304    -0.13300
F700        F  0.62659244  0.93197819  0.96962696    -0.13800
F701        F  0.61697111  0.82462112  0.53412868    -0.16100
F702        F  0.69680432  0.92600325  0.97183126    -0.14700
F703        F  0.73366925  0.87140053  0.43035622    -0.14700
F704        F  0.80012234  0.84289139  0.07574001    -0.16100
N705        N  0.53013108  0.87172067  0.53912252    -0.35300
N706        N  0.45613761  0.87588696  0.53624762    -0.55900
N707        N  0.45993703  0.86369857  0.94941558    -0.35300
N708        N  0.53329488  0.86758972  0.95155206    -0.55900
C709        C  0.52192301  0.87520594  0.57895815     0.28300
C710        C  0.56303631  0.88301787  0.53365034     0.28300
C711        C  0.42842572  0.87742145  0.95479849     0.28300
C712        C  0.46878487  0.87076544  0.91014377     0.28300
C713        C  0.45926976  0.87294614  0.57727141     0.36900
C714        C  0.42224061  0.88022142  0.52824081     0.36900
C715        C  0.56699388  0.87339917  0.95903230     0.36900
C716        C  0.52999263  0.86448474  0.91067837     0.36900
C717        C  0.54951199  0.89004523  0.59879423    -0.20600
C718        C  0.57558534  0.89447604  0.57040216    -0.20600
C719        C  0.41763084  0.89425779  0.91906760    -0.20600
C720        C  0.44366782  0.89078674  0.89100930    -0.20600
C721        C  0.42763447  0.87959515  0.59512999    -0.21700
C722        C  0.40398544  0.88254200  0.56429410    -0.21700
C723        C  0.58499557  0.87596104  0.92245755    -0.21700
C724        C  0.56133513  0.87180486  0.89192224    -0.21700
C725        C  0.49046891  0.86395359  0.59775859    -0.17000
C726        C  0.58282129  0.88146160  0.49712871    -0.17000
C727        C  0.49814600  0.85742943  0.89108434    -0.17000
C728        C  0.40785033  0.88197637  0.48870639    -0.17000
H729        H  0.55086434  0.89653589  0.63059663     0.15900
H730        H  0.60095876  0.90486562  0.57618644     0.15900
H731        H  0.39342974  0.90745770  0.91381599     0.15900
H732        H  0.44359274  0.90053407  0.85963584     0.15900
H733        H  0.42173132  0.88226653  0.62708727     0.14200
H734        H  0.37667367  0.88646331  0.56840055     0.14200
H735        H  0.61208465  0.88137134  0.91779657     0.14200
H736        H  0.56667496  0.87497735  0.85959931     0.14200
H737        H  0.51550501  0.85802745  0.51867221     0.27500
H738        H  0.47257285  0.84639691  0.96927814     0.27400
N739        N  0.52846890  0.83586708  0.69966935    -0.35300
N740        N  0.45407593  0.83795043  0.70125290    -0.55900
N741        N  0.45550822  0.83733206  0.79000599    -0.35300
N742        N  0.52902343  0.82909262  0.78808638    -0.55900
C743        C  0.52169265  0.83583896  0.65925742     0.28300
C744        C  0.55982504  0.82153503  0.70528993     0.28300
C745        C  0.42207634  0.82830514  0.78469920     0.28300
C746        C  0.46220504  0.83613671  0.83056111     0.28300
C747        C  0.46030818  0.83516595  0.66094817     0.36900
C748        C  0.42239805  0.82465060  0.70851818     0.36900
C749        C  0.56107874  0.81721094  0.78140351     0.36900
C750        C  0.52391206  0.82755284  0.82888148     0.36900
C751        C  0.54859398  0.82031467  0.63902101    -0.20600
C752        C  0.57303063  0.81196528  0.66802009    -0.20600
C753        C  0.40712404  0.82169500  0.82269645    -0.20600
C754        C  0.43260586  0.82551555  0.85138093    -0.20600
C755        C  0.43363027  0.81730276  0.64307524    -0.21700
C756        C  0.40897735  0.81184910  0.67287894    -0.21700
C757        C  0.57569272  0.80602388  0.81810229    -0.21700
C758        C  0.55136551  0.81088841  0.84783984    -0.21700
C759        C  0.49063814  0.84753756  0.64113291    -0.17000
C760        C  0.57749059  0.81746517  0.74279985    -0.17000
C761        C  0.49510991  0.84217118  0.84850917    -0.17000
C762        C  0.40513696  0.82417632  0.74665770    -0.17000
H763        H  0.55016553  0.81488686  0.60690718     0.15900
H764        H  0.59738759  0.79941944  0.66253137     0.15900
H765        H  0.38098071  0.81350267  0.82930649     0.15900
H766        H  0.42975976  0.81989163  0.88379107     0.15900
H767        H  0.43191358  0.80960673  0.61171417     0.14200
H768        H  0.38436259  0.79917574  0.66902693     0.14200
H769        H  0.60097590  0.79520292  0.82328740     0.14200
H770        H  0.55417060  0.80410522  0.87998789     0.14200
H771        H  0.51413530  0.84880625  0.72100010     0.27500
H772        H  0.47236963  0.84670095  0.76776118     0.27400
N773        N  0.95151083  0.38453690  0.55616246    -0.35300
N774        N  0.95037946  0.38639800  0.96459477    -0.55900
N775        N  0.93689967  0.46021703  0.96261292    -0.35300
N776        N  0.93733240  0.45818757  0.55160833    -0.55900
C777        C  0.95613050  0.35046052  0.55015357     0.28300
C778        C  0.94077739  0.38834733  0.59532153     0.28300
C779        C  0.93771262  0.45468462  0.92205884     0.28300
C780        C  0.94142953  0.49445338  0.96773784     0.28300
C781        C  0.96960584  0.35797253  0.97177291     0.36900
C782        C  0.95398036  0.39501630  0.92459901     0.36900
C783        C  0.94161215  0.45162827  0.59205611     0.36900
C784        C  0.94572163  0.49162925  0.54399703     0.36900
C785        C  0.95044971  0.33225217  0.58656135    -0.20600
C786        C  0.94256344  0.35604382  0.61513757    -0.20600
C787        C  0.94398707  0.48585361  0.90110910    -0.20600
C788        C  0.94552881  0.51096872  0.92978537    -0.20600
C789        C  0.98628951  0.34894865  0.93631011    -0.21700
C790        C  0.97726279  0.37325184  0.90659300    -0.21700
C791        C  0.95460008  0.48069667  0.60987023    -0.21700
C792        C  0.95572541  0.50643712  0.58000130    -0.21700
C793        C  0.96797251  0.33760448  0.00828997    -0.17000
C794        C  0.93122806  0.42054492  0.61299658    -0.17000
C795        C  0.94322792  0.51124473  0.00557109    -0.17000
C796        C  0.93520382  0.42160691  0.90451593    -0.17000
H797        H  0.95324800  0.30486495  0.59283797     0.15900
H798        H  0.94124498  0.34960055  0.64732909     0.15900
H799        H  0.94809477  0.49007444  0.86866045     0.15900
H800        H  0.95056989  0.53811032  0.92350106     0.15900
H801        H  0.00254081  0.32678184  0.93219695     0.14200
H802        H  0.98543768  0.37399571  0.87498345     0.14200
H803        H  0.96097263  0.48354339  0.64167423     0.14200
H804        H  0.96339349  0.53275538  0.58477792     0.14200
H805        H  0.95689647  0.40403742  0.53468052     0.27500
H806        H  0.93022186  0.44174036  0.98488269     0.27400
N807        N  0.90583183  0.45346918  0.80234688    -0.35300
N808        N  0.90134095  0.45661189  0.71445246    -0.55900
N809        N  0.90951460  0.38326869  0.71513096    -0.35300
N810        N  0.90951414  0.38018359  0.80351053    -0.55900
C811        C  0.88810724  0.48308454  0.79604144     0.28300
C812        C  0.90198153  0.44426305  0.84223151     0.28300
C813        C  0.90112615  0.39241412  0.67625668     0.28300
C814        C  0.89469147  0.35222984  0.72344151     0.28300
C815        C  0.89253884  0.48960197  0.72076229     0.36900
C816        C  0.90357002  0.45331084  0.67358723     0.36900
C817        C  0.91639440  0.38394318  0.84365438     0.36900
C818        C  0.90784755  0.34595140  0.79713703     0.36900
C819        C  0.87208799  0.49222203  0.83188938    -0.20600
C820        C  0.88005835  0.46705953  0.86089695    -0.20600
C821        C  0.87899962  0.36823544  0.66039096    -0.20600
C822        C  0.87572591  0.34219859  0.68998135    -0.20600
C823        C  0.88714966  0.50702499  0.68369732    -0.21700
C824        C  0.89239104  0.48349451  0.65394118    -0.21700
C825        C  0.91621571  0.35159558  0.86327882    -0.21700
C826        C  0.91216947  0.32761275  0.83374496    -0.21700
C827        C  0.88794305  0.50347139  0.75964527    -0.17000
C828        C  0.91952439  0.41667917  0.86208502    -0.17000
C829        C  0.90051561  0.33149191  0.75898908    -0.17000
C830        C  0.91357170  0.42219125  0.65530652    -0.17000
H831        H  0.85633951  0.51472176  0.83653694     0.15900
H832        H  0.87170650  0.46623470  0.89246045     0.15900
H833        H  0.86781648  0.36872188  0.63013996     0.15900
H834        H  0.86131727  0.31845881  0.68719467     0.15900
H835        H  0.87893195  0.53341084  0.67846758     0.14200
H836        H  0.88797208  0.48811452  0.62162264     0.14200
H837        H  0.91685355  0.34549156  0.89565462     0.14200
H838        H  0.91103548  0.29996537  0.83914364     0.14200
H839        H  0.92335467  0.44259137  0.78242168     0.27500
H840        H  0.92773532  0.39572931  0.73282037     0.27400
N841        N  0.46741945  0.01437964  0.54502599    -0.35300
N842        N  0.54223863  0.00484639  0.55056487    -0.55900
N843        N  0.54484237  0.00150133  0.96354361    -0.35300
N844        N  0.47029309  0.00789969  0.96347397    -0.55900
C845        C  0.46956036  0.00546886  0.58546627     0.28300
C846        C  0.43376467  0.01716039  0.53464923     0.28300
C847        C  0.57802977  0.01069308  0.97009253     0.28300
C848        C  0.53888918  0.00392878  0.92284870     0.28300
C849        C  0.53184549  0.01279228  0.58845386     0.36900
C850        C  0.57388577  0.01880074  0.54495245     0.36900
C851        C  0.44112513  0.02537967  0.97063399     0.36900
C852        C  0.47834562  0.01427938  0.92391799     0.36900
C853        C  0.43626595  0.00607729  0.60135427    -0.20600
C854        C  0.41385133  0.01192877  0.56932552    -0.20600
C855        C  0.59358153  0.01854694  0.93266288    -0.20600
C856        C  0.56861072  0.01558044  0.90316838    -0.20600
C857        C  0.55674709  0.03271873  0.60677579    -0.21700
C858        C  0.58382562  0.03571126  0.57959630    -0.21700
C859        C  0.43093839  0.04368449  0.93560505    -0.21700
C860        C  0.45524369  0.03742284  0.90615270    -0.21700
C861        C  0.50132823  0.99972238  0.60738892    -0.17000
C862        C  0.42142741  0.02128388  0.00669798    -0.17000
C863        C  0.50622748  0.99877864  0.90419545    -0.17000
C864        C  0.59389096  0.01440263  0.00886471    -0.17000
H865        H  0.42823738  0.00559035  0.63286141     0.15900
H866        H  0.38614928  0.01392294  0.57193430     0.15900
H867        H  0.61973122  0.02707408  0.92689116     0.15900
H868        H  0.57182903  0.02226406  0.87103213     0.15900
H869        H  0.55581928  0.04302260  0.63702022     0.14200
H870        H  0.60769546  0.04951231  0.58430763     0.14200
H871        H  0.40821296  0.05954610  0.93173238     0.14200
H872        H  0.45536300  0.04766053  0.87497668     0.14200
H873        H  0.48784015  0.02023576  0.52561619     0.27500
H874        H  0.52754424  0.99150493  0.98501382     0.27400
N875        N  0.53873447  0.97708698  0.80070384    -0.35300
N876        N  0.53954857  0.97493856  0.71207687    -0.55900
N877        N  0.46601933  0.97819562  0.71190441    -0.35300
N878        N  0.46565051  0.97528940  0.80141005    -0.55900
C879        C  0.57054504  0.96415258  0.79449516     0.28300
C880        C  0.53147408  0.97177208  0.84081933     0.28300
C881        C  0.47419530  0.97140068  0.67281538     0.28300
C882        C  0.43611650  0.96139648  0.72061220     0.28300
C883        C  0.57337434  0.96917024  0.71884617     0.36900
C884        C  0.53535007  0.97679318  0.67104939     0.36900
C885        C  0.46979612  0.98025820  0.84186815     0.36900
C886        C  0.43150881  0.97119851  0.79486465     0.36900
C887        C  0.58317880  0.94980744  0.83080665    -0.20600
C888        C  0.55787232  0.95335776  0.85959618    -0.20600
C889        C  0.45087479  0.94815438  0.65763396    -0.20600
C890        C  0.42599910  0.94278131  0.68730358    -0.19800
C891        C  0.59041415  0.96486407  0.68227527    -0.21700
C892        C  0.56610708  0.96842841  0.65212817    -0.21700
C893        C  0.43807886  0.97649316  0.86126612    -0.21700
C894        C  0.41382410  0.97214627  0.83150388    -0.21700
C895        C  0.58919580  0.96697638  0.75757009    -0.17000
C896        C  0.50246392  0.98520503  0.86090875    -0.17000
C897        C  0.41647080  0.96438336  0.75666394    -0.17000
C898        C  0.50337956  0.98447876  0.65160372    -0.17000
H899        H  0.60791076  0.93794185  0.83644821     0.15900
H900        H  0.55939003  0.94472427  0.89130118     0.15900
H901        H  0.45132477  0.93760346  0.62761455     0.15900
H902        H  0.40316865  0.92691341  0.68481274     0.15900
H903        H  0.61728637  0.95853580  0.67793297     0.14200
H904        H  0.57069325  0.96441309  0.62010244     0.14200
H905        H  0.43266764  0.97475620  0.89360221     0.14200
H906        H  0.38653640  0.96838333  0.83680120     0.14200
H907        H  0.52488196  0.99293058  0.78036229     0.27500
H908        H  0.47827669  0.99625767  0.72977149     0.27400
N909        N  0.08755195  0.37605064  0.94581189    -0.35300
N910        N  0.08426942  0.37509450  0.53693366    -0.55900
N911        N  0.07252110  0.44787417  0.52983579    -0.35300
N912        N  0.08248600  0.44904374  0.94172615    -0.55900
C913        C  0.10554198  0.34688498  0.95401211     0.28300
C914        C  0.08996622  0.38282233  0.90514923     0.28300
C915        C  0.07604718  0.44204449  0.57062145     0.28300
C916        C  0.08659648  0.47923653  0.52051616     0.28300
C917        C  0.09628148  0.34262620  0.53459052     0.36900
C918        C  0.08051226  0.38097392  0.57709487     0.36900
C919        C  0.08012981  0.44376648  0.90119887     0.36900
C920        C  0.08768869  0.48318319  0.94575028     0.36900
C921        C  0.12006705  0.33532524  0.91834525    -0.20600
C922        C  0.11109535  0.35867888  0.88760439    -0.20600
C923        C  0.09432705  0.46893066  0.58702583    -0.20600
C924        C  0.09950577  0.49313984  0.55584483    -0.20600
C925        C  0.10234386  0.32861651  0.57338742    -0.21700
C926        C  0.09395569  0.35356420  0.60016261    -0.21700
C927        C  0.08691521  0.47434776  0.87937610    -0.21700
C928        C  0.09091090  0.49940544  0.90750960    -0.21700
C929        C  0.10175980  0.32556114  0.49787329    -0.17000
C930        C  0.07406498  0.41103980  0.88432335    -0.17000
C931        C  0.08812589  0.49573339  0.48117241    -0.17000
C932        C  0.06588352  0.41142674  0.59227487    -0.17000
H933        H  0.13583406  0.31263130  0.91504329     0.15900
H934        H  0.11892986  0.35783540  0.85593391     0.15900
H935        H  0.10272362  0.47096522  0.61833631     0.15900
H936        H  0.11245219  0.51762219  0.55888011     0.15900
H937        H  0.11240287  0.30342896  0.58183864     0.14200
H938        H  0.09738645  0.35152516  0.63290705     0.14200
H939        H  0.08953498  0.47821631  0.84665169     0.14200
H940        H  0.09644808  0.52634663  0.90054562     0.14200
H941        H  0.07091704  0.38832240  0.96552363     0.27500
H942        H  0.05849570  0.43234053  0.51055730     0.27400
N943        N  0.03277045  0.44596265  0.69418053    -0.35300
N944        N  0.04082557  0.44374952  0.78266602    -0.55900
N945        N  0.05411033  0.37009511  0.78250620    -0.35300
N946        N  0.04561611  0.37208325  0.69455171    -0.55900
C947        C  0.02802901  0.47972909  0.70134248     0.28300
C948        C  0.03847735  0.44282878  0.65362863     0.28300
C949        C  0.05450630  0.37502133  0.82325580     0.28300
C950        C  0.04887584  0.33598126  0.77690993     0.28300
C951        C  0.02419946  0.47407705  0.77720298     0.36900
C952        C  0.03991372  0.43561169  0.82304542     0.36900
C953        C  0.03888078  0.37965961  0.65481742     0.36900
C954        C  0.04011499  0.33799582  0.70120011     0.36900
C955        C  0.02785382  0.49825552  0.66449573    -0.20600
C956        C  0.03290655  0.47486692  0.63451701    -0.20600
C957        C  0.04824678  0.34371719  0.84373478    -0.20600
C958        C  0.04592202  0.31905836  0.81479519    -0.20600
C959        C  0.01172915  0.48487985  0.81420711    -0.21700
C960        C  0.02062844  0.45986610  0.84309155    -0.21700
C961        C  0.02713348  0.35018834  0.63640350    -0.21700
C962        C  0.02871860  0.32360739  0.66551638    -0.21700
C963        C  0.02400960  0.49409582  0.74027216    -0.17000
C964        C  0.04810781  0.41154716  0.63454584    -0.17000
C965        C  0.04606706  0.31968970  0.73877389    -0.17000
C966        C  0.05809099  0.40758239  0.84173649    -0.17000
H967        H  0.02332099  0.52555029  0.65932054     0.15900
H968        H  0.03083622  0.48107707  0.60222814     0.15900
H969        H  0.04473357  0.33896853  0.87617268     0.15900
H970        H  0.04134363  0.29194533  0.82139149     0.15900
H971        H  0.99805120  0.50849513  0.81976744     0.14200
H972        H  0.01471964  0.46012388  0.87537736     0.14200
H973        H  0.02026343  0.34778217  0.60466213     0.14200
H974        H  0.02231163  0.29684429  0.66094419     0.14200
H975        H  0.03213350  0.42623699  0.71614505     0.27500
H976        H  0.06071340  0.38866617  0.76027955     0.27400
O977        O  0.85678036  0.84363072  0.96792102    -0.71700
O978        O  0.96050804  0.83663528  0.96606730    -0.72600
O979        O  0.90581389  0.78767853  0.96686921    -0.61300
O980        O  0.91167756  0.89197201  0.96766285    -0.69700
O981        O  0.91601908  0.88586187  0.53431346    -0.69200
O982        O  0.90756939  0.78301677  0.53238993    -0.60500
O983        O  0.96393053  0.82960118  0.52991839    -0.73000
O984        O  0.85936422  0.83991029  0.53502922    -0.71800
Cu985      Cu  0.90860024  0.83999570  0.96479550     1.04600
Cu986      Cu  0.91171166  0.83438653  0.53524663     1.04300
C987        C  0.84220726  0.84407629  0.50179802     0.94500
C988        C  0.97892154  0.82944372  0.49500804     0.93700
C989        C  0.90707829  0.76753191  0.49865963     0.85800
C990        C  0.91546390  0.90384356  0.50093875     0.92100
O991        O  0.85208403  0.83238273  0.78353640    -0.71700
O992        O  0.95538037  0.82706362  0.78679700    -0.72600
O993        O  0.90689992  0.88113096  0.78408968    -0.61300
O994        O  0.90062766  0.77849992  0.78734984    -0.69700
O995        O  0.90172029  0.77803650  0.71979058    -0.69200
O996        O  0.90838244  0.88181761  0.71628622    -0.60500
O997        O  0.95618556  0.82714710  0.71897899    -0.73000
O998        O  0.85377407  0.83280396  0.71596506    -0.71800
Cu999      Cu  0.90370336  0.82978527  0.78778177     1.04600
Cu1000     Cu  0.90508588  0.82999946  0.71536571     1.04300
C1001       C  0.83651379  0.83296283  0.74915148     0.94500
C1002       C  0.97196130  0.82638142  0.75310273     0.93700
C1003       C  0.90890487  0.89769288  0.74982285     0.85800
C1004       C  0.89976259  0.76186975  0.75447238     0.92100
O1005       O  0.87140270  0.01272032  0.54059071    -0.71700
O1006       O  0.97454630  0.00288616  0.53703368    -0.72600
O1007       O  0.92895967  0.05939869  0.54017782    -0.61300
O1008       O  0.91835660  0.95607728  0.53676750    -0.69700
O1009       O  0.91509362  0.96280985  0.96874217    -0.69200
O1010       O  0.92815766  0.06579618  0.97064315    -0.60500
O1011       O  0.97221651  0.00866221  0.96791686    -0.73000
O1012       O  0.86947049  0.02045743  0.97165750    -0.71800
Cu1013     Cu  0.92318534  0.00763039  0.54102873     1.04600
Cu1014     Cu  0.92097504  0.01452849  0.96740572     1.04300
C1015       C  0.85383500  0.02063148  0.00605613     0.94500
C1016       C  0.98910202  0.00609303  0.00128401     0.93700
C1017       C  0.93244156  0.08052288  0.00457166     0.85800
C1018       C  0.91695109  0.94167748  0.50228654     0.92100
O1019       O  0.91469006  0.05583005  0.71450487    -0.71700
O1020       O  0.91262128  0.95232180  0.71517735    -0.72600
O1021       O  0.86195844  0.00413201  0.71640278    -0.61300
O1022       O  0.96605905  0.00276153  0.71419366    -0.69700
O1023       O  0.96641625  0.00070288  0.78197400    -0.69200
O1024       O  0.86311633  0.00378451  0.78402716    -0.60500
O1025       O  0.91261153  0.95088301  0.78301279    -0.73000
O1026       O  0.91640990  0.05456356  0.78207871    -0.71800
Cu1027     Cu  0.91387983  0.00398229  0.71268599     1.04600
Cu1028     Cu  0.91474770  0.00254792  0.78508921     1.04300
C1029       C  0.91561134  0.07172055  0.74800147     0.94500
C1030       C  0.91160403  0.93536548  0.74926784     0.93700
C1031       C  0.84611688  0.00320915  0.75072221     0.85800
C1032       C  0.98256959  0.00071033  0.74797206     0.92100
O1033       O  0.14577635  0.00310615  0.96305137    -0.71700
O1034       O  0.04228894  0.00507117  0.96570214    -0.72600
O1035       O  0.09550864  0.05504267  0.96523440    -0.61300
O1036       O  0.09182029  0.95244026  0.96302265    -0.69700
O1037       O  0.09360826  0.94406492  0.52734496    -0.69200
O1038       O  0.09937994  0.04731334  0.53302537    -0.60500
O1039       O  0.04497069  0.99794364  0.53361572    -0.73000
O1040       O  0.14844683  0.99396371  0.52623852    -0.71800
Cu1041     Cu  0.09385546  0.00391756  0.96189876     1.04600
Cu1042     Cu  0.09674784  0.99553754  0.53246514     1.04300
C1043       C  0.16256948  0.00220761  0.99662309     0.94500
C1044       C  0.02747800  0.00119285  0.50069792     0.93700
C1045       C  0.09699911  0.07019624  0.99911629     0.85800
C1046       C  0.09070387  0.93464968  0.99653375     0.92100
O1047       O  0.03652648  0.99602806  0.78214682    -0.71700
O1048       O  0.14038518  0.98921998  0.78380708    -0.72600
O1049       O  0.09091043  0.04493353  0.78171962    -0.61300
O1050       O  0.08538327  0.94086335  0.78464158    -0.69700
O1051       O  0.08557650  0.94186708  0.71687717    -0.69200
O1052       O  0.09173002  0.04572149  0.71422106    -0.60500
O1053       O  0.14074945  0.98983055  0.71631138    -0.73000
O1054       O  0.03702381  0.99723940  0.71438331    -0.71800
Cu1055     Cu  0.08837147  0.99281877  0.78541157     1.04600
Cu1056     Cu  0.08891702  0.99376437  0.71313205     1.04300
C1057       C  0.02045679  0.99794761  0.74809191     0.94500
C1058       C  0.15701079  0.98718987  0.75020638     0.93700
C1059       C  0.09087230  0.06194526  0.74752131     0.85800
C1060       C  0.08471138  0.92499795  0.75113667     0.92100
O1061       O  0.03507875  0.82260230  0.52439523    -0.71700
O1062       O  0.13865342  0.82340282  0.51517601    -0.72600
O1063       O  0.08789184  0.87389894  0.52337563    -0.61300
O1064       O  0.08741347  0.77065792  0.51571898    -0.69700
O1065       O  0.08149915  0.77960853  0.95700331    -0.69200
O1066       O  0.08381777  0.88298831  0.96099814    -0.60500
O1067       O  0.13386880  0.83190317  0.95461447    -0.73000
O1068       O  0.03052578  0.83230357  0.96272129    -0.71800
Cu1069     Cu  0.08724365  0.82220377  0.52193295     1.04600
Cu1070     Cu  0.08219299  0.83163062  0.95655542     1.04300
C1071       C  0.01688757  0.82605906  0.49202593     0.94500
C1072       C  0.15348878  0.82806999  0.48053536     0.93700
C1073       C  0.08711576  0.89271392  0.49058450     0.85800
C1074       C  0.08676463  0.75664209  0.48097982     0.92100
O1075       O  0.12894471  0.81296189  0.78468881    -0.71700
O1076       O  0.02587334  0.82230781  0.78687081    -0.72600
O1077       O  0.07143275  0.76577607  0.78514916    -0.61300
O1078       O  0.08205007  0.86969415  0.78573764    -0.69700
O1079       O  0.08127913  0.87167553  0.71796267    -0.69200
O1080       O  0.07109328  0.76872042  0.71759919    -0.60500
O1081       O  0.02548922  0.82451894  0.71901467    -0.73000
O1082       O  0.12807984  0.81557531  0.71716191    -0.71800
Cu1083     Cu  0.07727689  0.81759343  0.78804351     1.04600
Cu1084     Cu  0.07661744  0.82019741  0.71567769     1.04300
C1085       C  0.14499946  0.81309194  0.75055374     0.94500
C1086       C  0.00951667  0.82442793  0.75311877     0.93700
C1087       C  0.06816901  0.75097408  0.75104777     0.85800
C1088       C  0.08268378  0.88703162  0.75174514     0.92100
C1089       C  0.05156518  0.65708058  0.78452798     0.14000
C1090       C  0.04216410  0.64233118  0.74754141     0.00900
C1091       C  0.04088837  0.66350064  0.71190044     0.15900
C1092       C  0.04943874  0.69858934  0.71303376     0.25300
C1093       C  0.05970372  0.71339915  0.74994065    -0.41000
C1094       C  0.06027884  0.69212239  0.78578258     0.32400
C1095       C  0.03630265  0.60445776  0.74587677     0.01000
F1096       F  0.03238133  0.64998904  0.67559620    -0.13300
F1097       F  0.06956680  0.70498635  0.82216011    -0.13900
C1098       C  0.00518460  0.59066904  0.73123315     0.15900
C1099       C  0.00051890  0.55475584  0.72983666     0.25300
C1100       C  0.02679972  0.53225338  0.74330983    -0.41000
C1101       C  0.05778400  0.54613288  0.75773114     0.32300
C1102       C  0.06259364  0.58176113  0.75867369     0.14000
F1103       F  0.97937328  0.61193576  0.71843996    -0.13300
F1104       F  0.08395348  0.52498328  0.76977662    -0.13800
F1105       F  0.97071507  0.54192303  0.71482607    -0.16100
F1106       F  0.09351554  0.59418933  0.77089446    -0.14700
F1107       F  0.05237493  0.63737833  0.81962924    -0.14700
F1108       F  0.04743459  0.71799448  0.67779039    -0.16100
C1109       C  0.09081097  0.23410082  0.72453248     0.14000
C1110       C  0.06706403  0.21020471  0.74166170     0.00900
C1111       C  0.03538196  0.22229864  0.75639218     0.15900
C1112       C  0.02776709  0.25767761  0.75438179     0.25300
C1113       C  0.05181531  0.28161326  0.73791123    -0.41000
C1114       C  0.08321373  0.26940702  0.72259385     0.32400
C1115       C  0.07512660  0.17267155  0.74350604     0.01000
F1116       F  0.01175688  0.19976950  0.77256177    -0.13300
F1117       F  0.10699402  0.29194256  0.70674205    -0.13900
C1118       C  0.07722833  0.15427612  0.78116708     0.15900
C1119       C  0.08357706  0.11864518  0.78267051     0.25300
C1120       C  0.08792712  0.10047650  0.74636562    -0.41000
C1121       C  0.08662356  0.11938446  0.70869677     0.32300
C1122       C  0.08029863  0.15496317  0.70738717     0.14000
F1123       F  0.07307643  0.17086926  0.81662926    -0.13300
F1124       F  0.09057457  0.10345220  0.67278300    -0.13800
F1125       F  0.08465002  0.10195896  0.81979757    -0.16100
F1126       F  0.07800100  0.17199859  0.67055546    -0.14700
F1127       F  0.12182080  0.22329996  0.71071456    -0.14700
F1128       F  0.99737529  0.26869120  0.76959895    -0.16100
C1129       C  0.09441929  0.66596794  0.02067659     0.14000
C1130       C  0.09408691  0.64533602  0.47576946     0.00900
C1131       C  0.08433381  0.66527092  0.44102030     0.15900
C1132       C  0.08216043  0.70131824  0.44240877     0.25300
C1133       C  0.08960574  0.71830479  0.47877383    -0.41000
C1134       C  0.09283800  0.70195029  0.02284739     0.32400
C1135       C  0.09358006  0.60696688  0.47531449     0.01000
F1136       F  0.07687500  0.64972176  0.40562047    -0.13300
F1137       F  0.10114846  0.71639875  0.05867367    -0.13900
C1138       C  0.06006677  0.59243521  0.96887546     0.15900
C1139       C  0.06117087  0.55639358  0.96888631     0.25300
C1140       C  0.09089962  0.53407984  0.47817773    -0.41000
C1141       C  0.12207578  0.55130002  0.48550669     0.32300
C1142       C  0.12335918  0.58749680  0.48443913     0.14000
F1143       F  0.03063242  0.60868397  0.95706819    -0.13300
F1144       F  0.15113810  0.53301233  0.49383712    -0.13800
F1145       F  0.03306223  0.53874845  0.95627450    -0.16100
F1146       F  0.15370010  0.60354210  0.49203429    -0.14700
F1147       F  0.10295499  0.64688498  0.05470773    -0.14700
F1148       F  0.07218527  0.71941593  0.40826209    -0.16100
C1149       C  0.10301886  0.16351953  0.96132980     0.14000
C1150       C  0.10677771  0.17675178  0.50258421     0.00900
C1151       C  0.10872206  0.15679849  0.53910787     0.15900
C1152       C  0.10614732  0.12077653  0.53854332     0.25300
C1153       C  0.10183955  0.10408221  0.50123934    -0.41000
C1154       C  0.09990617  0.12774025  0.96168303     0.32400
C1155       C  0.10611625  0.21483874  0.50284866     0.01000
F1156       F  0.11208196  0.17224879  0.57543352    -0.13300
F1157       F  0.09738989  0.11229994  0.92526369    -0.13900
C1158       C  0.07858403  0.23732991  0.98103213     0.15900
C1159       C  0.07967562  0.27316592  0.97871792     0.25300
C1160       C  0.10460032  0.28740138  0.49933484    -0.41000
C1161       C  0.13343656  0.27003234  0.51572264     0.32300
C1162       C  0.13405656  0.23385305  0.51780803     0.14000
F1163       F  0.04993202  0.22072299  0.96818612    -0.13300
F1164       F  0.16083584  0.28806556  0.52950090    -0.13800
F1165       F  0.05191826  0.29071364  0.96398319    -0.16100
F1166       F  0.16213136  0.21741061  0.53351874    -0.14700
F1167       F  0.10384102  0.18148836  0.92496848    -0.14700
F1168       F  0.10750414  0.10245328  0.57460404    -0.16100
C1169       C  0.24843659  0.96812480  0.71390682     0.14000
C1170       C  0.26704297  0.96705249  0.75065781     0.00900
C1171       C  0.24935353  0.97204921  0.78741134     0.15900
C1172       C  0.21383341  0.97879824  0.78739163     0.25300
C1173       C  0.19505842  0.98064840  0.75043627    -0.41000
C1174       C  0.21295867  0.97481931  0.71370049     0.32400
C1175       C  0.30529250  0.96423076  0.75021426     0.01000
F1176       F  0.26678372  0.97170522  0.82331913    -0.13300
F1177       F  0.19629654  0.97560215  0.67728530    -0.13900
C1178       C  0.32492964  0.99025461  0.73017834     0.15900
C1179       C  0.36091594  0.98961135  0.73178545     0.25300
C1180       C  0.37814562  0.96277564  0.75317378    -0.41000
C1181       C  0.35866279  0.93609793  0.77229692     0.32300
C1182       C  0.32246006  0.93692538  0.77105494     0.14000
F1183       F  0.30913068  0.01717805  0.71039919    -0.13300
F1184       F  0.37474419  0.90963580  0.79263756    -0.13800
F1185       F  0.37904534  0.01602037  0.71369561    -0.16100
F1186       F  0.30418105  0.91117604  0.79022214    -0.14700
F1187       F  0.26477934  0.96286347  0.67798150    -0.14700
F1188       F  0.19808703  0.98404599  0.82366672    -0.16100
C1189       C  0.75454579  0.97867402  0.72303930     0.14000
C1190       C  0.73634737  0.98802536  0.75790132     0.00900
C1191       C  0.75382425  0.00380367  0.78967841     0.15900
C1192       C  0.78939750  0.00956407  0.78701095     0.25300
C1193       C  0.80800880  0.99985246  0.75222098    -0.41000
C1194       C  0.79003835  0.98463664  0.72005870     0.32400
C1195       C  0.69880470  0.98250666  0.76015488     0.01000
F1196       F  0.73640471  0.01339303  0.82339799    -0.13300
F1197       F  0.80688882  0.97450055  0.68620399    -0.13900
C1198       C  0.68513947  0.94959702  0.76967377     0.15900
C1199       C  0.64945119  0.94414897  0.76915594     0.25300
C1200       C  0.62713889  0.97165362  0.75946760    -0.41000
C1201       C  0.64095832  0.00468770  0.75075452     0.32300
C1202       C  0.67653381  0.01005242  0.75105119     0.14000
F1203       F  0.70641284  0.92286006  0.77942043    -0.13300
F1204       F  0.61984155  0.03172722  0.74167462    -0.13800
F1205       F  0.63670368  0.91217129  0.77805394    -0.16100
F1206       F  0.68937122  0.04199627  0.74173542    -0.14700
F1207       F  0.73779645  0.96381879  0.69180361    -0.14700
F1208       F  0.80552079  0.02488351  0.81835999    -0.16100
C1209       C  0.25765300  0.00292179  0.52173899     0.14000
C1210       C  0.27301982  0.01510944  0.99775646     0.00900
C1211       C  0.25447538  0.02132347  0.96153808     0.15900
C1212       C  0.21869965  0.01665498  0.96084150     0.25300
C1213       C  0.20080142  0.00533499  0.99646672    -0.41000
C1214       C  0.22207187  0.99732156  0.52412544     0.32400
C1215       C  0.31093019  0.01872517  0.99812101     0.01000
F1216       F  0.27103911  0.03255908  0.92697533    -0.13300
F1217       F  0.20774208  0.99107656  0.56151425    -0.13900
C1218       C  0.33335774  0.99356371  0.46292844     0.15900
C1219       C  0.36904730  0.99747185  0.46610301     0.25300
C1220       C  0.38330710  0.02225491  0.00235344    -0.41000
C1221       C  0.36304282  0.04591656  0.02316449     0.32300
C1222       C  0.32702642  0.04377091  0.02162425     0.14000
F1223       F  0.32040649  0.96622242  0.44317536    -0.13300
F1224       F  0.37816297  0.07053588  0.04556028    -0.13800
F1225       F  0.38988429  0.97338053  0.45007167    -0.16100
F1226       F  0.30782093  0.06597203  0.04317669    -0.14700
F1227       F  0.27658026  0.00162725  0.55657912    -0.14700
F1228       F  0.20163497  0.02412655  0.92550093    -0.16100
C1229       C  0.68436174  0.05186679  0.99526200     0.14000
C1230       C  0.70442163  0.02508631  0.01280578     0.00900
C1231       C  0.68700104  0.99534334  0.53264759     0.15900
C1232       C  0.65096789  0.99417125  0.53226482     0.25300
C1233       C  0.63193202  0.01936887  0.01118846    -0.41000
C1234       C  0.64831298  0.04928244  0.99504594     0.32400
C1235       C  0.74258944  0.02657436  0.01109425     0.01000
F1236       F  0.70472192  0.96868938  0.55040549    -0.13300
F1237       F  0.62942062  0.07576907  0.97882835    -0.13900
C1238       C  0.76205361  0.02554460  0.04716752     0.15900
C1239       C  0.79807286  0.02423195  0.04558914     0.25300
C1240       C  0.81553650  0.02401765  0.00769480    -0.41000
C1241       C  0.79588145  0.01606123  0.47304682     0.32300
C1242       C  0.75986425  0.01812852  0.47454566     0.14000
F1243       F  0.74608586  0.02566155  0.08408759    -0.13300
F1244       F  0.81108626  0.01046726  0.43653427    -0.13800
F1245       F  0.81566768  0.02275845  0.08137918    -0.16100
F1246       F  0.74144286  0.01437960  0.43977884    -0.14700
F1247       F  0.69973887  0.08050181  0.97843608    -0.14700
F1248       F  0.63450239  0.96657386  0.55010131    -0.16100
C1249       C  0.92357021  0.16444133  0.78154530     0.14000
C1250       C  0.91083411  0.18306080  0.74730292     0.00900
C1251       C  0.90111775  0.16521573  0.71262899     0.15900
C1252       C  0.90312959  0.12914002  0.71257994     0.25300
C1253       C  0.91510952  0.11016270  0.74729053    -0.41000
C1254       C  0.92568901  0.12838190  0.78163220     0.32400
C1255       C  0.90682621  0.22101997  0.74839772     0.01000
F1256       F  0.88873212  0.18270811  0.67917879    -0.13300
F1257       F  0.93826440  0.11139962  0.81533933    -0.13900
C1258       C  0.92950380  0.24311999  0.72653208     0.15900
C1259       C  0.92698453  0.27892700  0.72983340     0.25300
C1260       C  0.90145477  0.29329169  0.75463484    -0.41000
C1261       C  0.87769150  0.27116524  0.77488973     0.32300
C1262       C  0.88063343  0.23528368  0.77215799     0.14000
F1263       F  0.95470373  0.22996762  0.70292729    -0.13300
F1264       F  0.85178226  0.28430974  0.79738234    -0.13800
F1265       F  0.95018343  0.29966661  0.70973752    -0.16100
F1266       F  0.85785384  0.21433282  0.79259511    -0.14700
F1267       F  0.93402682  0.18130446  0.81497149    -0.14700
F1268       F  0.89217862  0.11281137  0.67898456    -0.16100
C1269       C  0.91358737  0.59479668  0.78192296     0.14000
C1270       C  0.88570134  0.61363629  0.76589511     0.00900
C1271       C  0.85683623  0.59619527  0.75094231     0.15900
C1272       C  0.85674411  0.56013210  0.74991074     0.25300
C1273       C  0.88568504  0.54138757  0.76345386    -0.41000
C1274       C  0.91353571  0.55889675  0.78084755     0.32400
C1275       C  0.88793673  0.65148871  0.76258517     0.01000
F1276       F  0.82909265  0.61416509  0.73686693    -0.13300
F1277       F  0.94110026  0.54115425  0.79584408    -0.13900
C1278       C  0.90008537  0.66766149  0.72635740     0.15900
C1279       C  0.90383775  0.70354145  0.72340379     0.25300
C1280       C  0.89592231  0.72377321  0.75705025    -0.41000
C1281       C  0.88402775  0.70714342  0.79353768     0.32300
C1282       C  0.87992582  0.67133868  0.79610789     0.14000
F1283       F  0.90892111  0.64850554  0.69409482    -0.13300
F1284       F  0.87600159  0.72545079  0.82678135    -0.13800
F1285       F  0.91596883  0.71825648  0.68796165    -0.16100
F1286       F  0.86826933  0.65597438  0.83141797    -0.14700
F1287       F  0.94124864  0.61131354  0.79752596    -0.14700
F1288       F  0.82879427  0.54352317  0.73524041    -0.16100
C1289       C  0.99079452  0.24263744  0.02700225     0.14000
C1290       C  0.96545767  0.22653161  0.00352160     0.00900
C1291       C  0.93812383  0.24617051  0.48411414     0.15900
C1292       C  0.94119175  0.28198236  0.48510256     0.25300
C1293       C  0.96924634  0.29929109  0.00491686    -0.41000
C1294       C  0.99302461  0.27878499  0.02718391     0.32400
C1295       C  0.96087932  0.18849706  0.00486273     0.01000
F1296       F  0.91283144  0.23246289  0.46106535    -0.13300
F1297       F  0.01780973  0.29378860  0.04980157    -0.13900
C1298       C  0.94710398  0.16796563  0.54472818     0.15900
C1299       C  0.93954865  0.13259685  0.54440660     0.25300
C1300       C  0.94217808  0.11776777  0.00478825    -0.41000
C1301       C  0.95398110  0.13513350  0.96874112     0.32300
C1302       C  0.96316540  0.17006647  0.96885918     0.14000
F1303       F  0.94585421  0.18424151  0.58069557    -0.13300
F1304       F  0.95693227  0.11837995  0.93323051    -0.13800
F1305       F  0.93259939  0.11567372  0.58050085    -0.16100
F1306       F  0.97402512  0.18610503  0.93357728    -0.14700
F1307       F  0.01324467  0.22335967  0.04978851    -0.14700
F1308       F  0.91873499  0.30180637  0.46296903    -0.16100
C1309       C  0.89866681  0.59812128  0.99625317     0.14000
C1310       C  0.92576374  0.62141357  0.00266410     0.00900
C1311       C  0.95895070  0.60836535  0.01085056     0.15900
C1312       C  0.96498283  0.57267143  0.01211649     0.25300
C1313       C  0.93793342  0.54942066  0.00509338    -0.41000
C1314       C  0.90472222  0.56251739  0.99741317     0.32400
C1315       C  0.91924544  0.65922318  0.00221982     0.01000
F1316       F  0.98552107  0.63031413  0.01751310    -0.13300
F1317       F  0.87794182  0.54058144  0.99176453    -0.13900
C1318       C  0.92342036  0.67477020  0.53578117     0.15900
C1319       C  0.91747462  0.71033740  0.53575769     0.25300
C1320       C  0.90998388  0.72910551  0.49903624    -0.41000
C1321       C  0.90270348  0.71285171  0.96617535     0.32300
C1322       C  0.90777257  0.67697744  0.96661310     0.14000
F1323       F  0.93018055  0.65757469  0.57170631    -0.13300
F1324       F  0.89194779  0.72901669  0.93104905    -0.13800
F1325       F  0.91995397  0.72636457  0.57180317    -0.16100
F1326       F  0.90242129  0.65968113  0.93187129    -0.14700
F1327       F  0.87193605  0.60895909  0.47397313    -0.14700
F1328       F  0.99703097  0.56081692  0.02086068    -0.16100
C1329       C  0.23884495  0.80782381  0.78464324     0.14000
C1330       C  0.25636684  0.81018867  0.74710743     0.00900
C1331       C  0.23728092  0.81211583  0.71077370     0.15900
C1332       C  0.20124557  0.81236857  0.71184656     0.25300
C1333       C  0.18336983  0.81094043  0.74949317    -0.41000
C1334       C  0.20275639  0.80837629  0.78593286     0.32400
C1335       C  0.29449312  0.81277060  0.74591190     0.01000
F1336       F  0.25363962  0.81389437  0.67407273    -0.13300
F1337       F  0.18699422  0.80704686  0.82299743    -0.13900
C1338       C  0.31520284  0.78552443  0.76105931     0.15900
C1339       C  0.35122520  0.78877306  0.76095802     0.25300
C1340       C  0.36696045  0.81951344  0.74626172    -0.41000
C1341       C  0.34620102  0.84630853  0.73014154     0.32300
C1342       C  0.31032351  0.84301560  0.73002934     0.14000
F1343       F  0.30050210  0.75566514  0.77542778    -0.13300
F1344       F  0.36081058  0.87579245  0.71457348    -0.13800
F1345       F  0.37077039  0.76200032  0.77513867    -0.16100
F1346       F  0.29092363  0.86966653  0.71512298    -0.14700
F1347       F  0.25676952  0.80617240  0.82020792    -0.14700
F1348       F  0.18403120  0.81455616  0.67581407    -0.16100
C1349       C  0.67160307  0.79166299  0.75304671     0.14000
C1350       C  0.68802484  0.82279220  0.74078661     0.00900
C1351       C  0.66801508  0.85090843  0.72696389     0.15900
C1352       C  0.63218279  0.84844945  0.72699130     0.25300
C1353       C  0.61568241  0.81791391  0.74094539    -0.41000
C1354       C  0.63560459  0.78913178  0.75274374     0.32400
C1355       C  0.72592790  0.82625587  0.74303375     0.01000
F1356       F  0.68314575  0.88111217  0.71450706    -0.13300
F1357       F  0.62021730  0.75876167  0.76399653    -0.13900
C1358       C  0.74515663  0.83590240  0.70808159     0.15900
C1359       C  0.78094953  0.83926707  0.71030037     0.25300
C1360       C  0.79831658  0.83260912  0.74755445    -0.41000
C1361       C  0.77877690  0.82371333  0.78273255     0.32300
C1362       C  0.74295935  0.82065281  0.78043841     0.14000
F1363       F  0.72931626  0.84133414  0.67149655    -0.13300
F1364       F  0.79424895  0.81715804  0.81931058    -0.13800
F1365       F  0.79848667  0.84894221  0.67581840    -0.16100
F1366       F  0.72481499  0.81240110  0.81493044    -0.14700
F1367       F  0.69048451  0.76369784  0.76498448    -0.14700
F1368       F  0.61336156  0.87618846  0.71398925    -0.16100
C1369       C  0.32103815  0.83565699  0.96332693     0.14000
C1370       C  0.29899978  0.86314392  0.47562469     0.00900
C1371       C  0.31048329  0.89390916  0.49277714     0.15900
C1372       C  0.34581386  0.90073173  0.49646489     0.25300
C1373       C  0.37011454  0.87681859  0.48324544    -0.41000
C1374       C  0.35663710  0.84041325  0.96624867     0.32400
C1375       C  0.26192437  0.85379700  0.47617762     0.01000
F1376       F  0.28741445  0.91710175  0.50639758    -0.13300
F1377       F  0.37801833  0.81559855  0.95276999    -0.13900
C1378       C  0.24793265  0.83030097  0.01122353     0.15900
C1379       C  0.21265351  0.82264577  0.01310904     0.25300
C1380       C  0.19140364  0.83455316  0.47879660    -0.41000
C1381       C  0.20903201  0.83837197  0.44110332     0.32300
C1382       C  0.24398109  0.84778237  0.43988830     0.14000
F1383       F  0.26939375  0.81604062  0.03977524    -0.13300
F1384       F  0.19251363  0.83336861  0.40530733    -0.13800
F1385       F  0.20079013  0.80092359  0.04341597    -0.16100
F1386       F  0.26016657  0.85164898  0.40320372    -0.14700
F1387       F  0.30853065  0.80665573  0.94657035    -0.14700
F1388       F  0.35631062  0.93015167  0.51390989    -0.16100
C1389       C  0.74896940  0.86630582  0.96694816     0.14000
C1390       C  0.73260234  0.86866508  0.50346859     0.00900
C1391       C  0.75091987  0.86308422  0.54015241     0.15900
C1392       C  0.78629438  0.85527355  0.53977860     0.25300
C1393       C  0.80431184  0.85224362  0.50255192    -0.41000
C1394       C  0.78449870  0.85965838  0.96616398     0.32400
C1395       C  0.69436620  0.87384179  0.50380867     0.01000
F1396       F  0.73445138  0.86520762  0.57657173    -0.13300
F1397       F  0.80099970  0.86162124  0.92956497    -0.13900
C1398       C  0.67120235  0.84352718  0.02161841     0.15900
C1399       C  0.63534406  0.84679566  0.02075169     0.25300
C1400       C  0.62141362  0.88042396  0.50080851    -0.41000
C1401       C  0.64284748  0.90702609  0.48468680     0.32300
C1402       C  0.67901478  0.90367326  0.48596396     0.14000
F1403       F  0.68511741  0.81395705  0.03759965    -0.13300
F1404       F  0.62874153  0.93587989  0.46710024    -0.13800
F1405       F  0.61556150  0.82058035  0.03653068    -0.16100
F1406       F  0.69904613  0.92947644  0.46970363    -0.14700
F1407       F  0.73227033  0.87307660  0.93117614    -0.14700
F1408       F  0.80277787  0.85072639  0.57606482    -0.16100
loop_ 
_geom_bond_atom_site_label_1 
_geom_bond_atom_site_label_2 
_geom_bond_distance 
_geom_bond_site_symmetry_2 
_ccdc_geom_bond_type 
N1            C6   1.356       .  A
N1            C5   1.355       .  A
N1           H33   1.040       .  S
N2            C9   1.353       .  A
N2           C10   1.352       .  A
N3            C8   1.348       .  A
N3            C7   1.351       .  A
N3           H34   1.041       .  S
N4           C11   1.354       .  A
N4           C12   1.355       .  A
C5           C13   1.386       .  A
C5           C21   1.421       .  A
C6           C22   1.418   1_554  A
C6           C14   1.386       .  A
C7           C15   1.385       .  A
C7          C728   1.406       .  A
C8           C23   1.410       .  A
C8           C16   1.385       .  A
C9           C21   1.428       .  A
C9           C17   1.389       .  A
C10          C24   1.412   1_554  A
C10          C18   1.382       .  A
C11          C19   1.384       .  A
C11         C726   1.421       .  A
C12          C20   1.387       .  A
C12          C23   1.430       .  A
C13          C14   1.377       .  A
C13          H25   1.082       .  S
C14          H26   1.082       .  S
C15          C16   1.374       .  A
C15          H27   1.083       .  S
C16          H28   1.082       .  S
C17          C18   1.369       .  A
C17          H29   1.080       .  S
C18          H30   1.081       .  S
C19          C20   1.374       .  A
C19          H31   1.081       .  S
C20          H32   1.081       .  S
C21          C55   1.540       .  S
C22         C715   1.418       .  A
C22         C696   1.494   1_556  S
C23          C57   1.539       .  S
C24         C711   1.405       .  A
C24         C669   1.486       .  S
N35          C40   1.353       .  A
N35          C39   1.354       .  A
N35          H67   1.034       .  S
N36          C43   1.349       .  A
N36          C44   1.348       .  A
N37          C42   1.352       .  A
N37          C41   1.354       .  A
N37          H68   1.033       .  S
N38          C45   1.348       .  A
N38          C46   1.349       .  A
C39          C47   1.388       .  A
C39          C55   1.424       .  A
C40          C56   1.423       .  A
C40          C48   1.387       .  A
C41          C49   1.388       .  A
C41          C58   1.423       .  A
C42          C57   1.427       .  A
C42          C50   1.388       .  A
C43          C55   1.415       .  A
C43          C51   1.386       .  A
C44          C58   1.414       .  A
C44          C52   1.387       .  A
C45          C53   1.390       .  A
C45          C56   1.419       .  A
C46          C54   1.382       .  A
C46          C57   1.414       .  A
C47          C48   1.379       .  A
C47          H59   1.082       .  S
C48          H60   1.082       .  S
C49          C50   1.379       .  A
C49          H61   1.081       .  S
C50          H62   1.082       .  S
C51          C52   1.376       .  A
C51          H63   1.082       .  S
C52          H64   1.082       .  S
C53          C54   1.372       .  A
C53          H65   1.078       .  S
C54          H66   1.082       .  S
C56         C649   1.491       .  S
C58         C636   1.490       .  S
N69          C74   1.359       .  A
N69          C73   1.356       .  A
N69         H101   1.035       .  S
N70          C77   1.347       .  A
N70          C78   1.349       .  A
N71          C76   1.355       .  A
N71          C75   1.355       .  A
N71         H102   1.037       .  S
N72          C79   1.349       .  A
N72          C80   1.350       .  A
C73          C81   1.381       .  A
C73         C793   1.422       .  A
C74          C90   1.442       .  A
C74          C82   1.392       .  A
C75          C83   1.388       .  A
C75          C92   1.426       .  A
C76          C91   1.421       .  A
C76          C84   1.387       .  A
C77          C89   1.412       .  A
C77          C85   1.386       .  A
C78          C92   1.410       .  A
C78          C86   1.384       .  A
C79          C87   1.384       .  A
C79          C90   1.423       .  A
C80          C88   1.385       .  A
C80         C795   1.417       .  A
C81          C82   1.373       .  A
C81          H93   1.081       .  S
C82          H94   1.077       .  S
C83          C84   1.376       .  A
C83          H95   1.080       .  S
C84          H96   1.082       .  S
C85          C86   1.377       .  A
C85          H97   1.079   1_655  S
C86          H98   1.081       .  S
C87          C88   1.375       .  A
C87          H99   1.080       .  S
C88         H100   1.080       .  S
C89         C777   1.423       .  A
C89         C589   1.495       .  S
C90         C126   1.544       .  S
C91         C784   1.418       .  A
C91         C609   1.494       .  S
C92         C124   1.540       .  S
N103        C108   1.352       .  A
N103        C107   1.352       .  A
N103        H135   1.043       .  S
N104        C111   1.347       .  A
N104        C112   1.351       .  A
N105        C110   1.350       .  A
N105        C109   1.351       .  A
N105        H136   1.043       .  S
N106        C113   1.357       .  A
N106        C114   1.353       .  A
C107        C115   1.385       .  A
C107        C123   1.407       .  A
C108        C124   1.414       .  A
C108        C116   1.387       .  A
C109        C117   1.385       .  A
C109        C126   1.406       .  A
C110        C125   1.411       .  A
C110        C118   1.389       .  A
C111        C123   1.409       .  A
C111        C119   1.385       .  A
C112        C126   1.418       .  A
C112        C120   1.386       .  A
C113        C121   1.389       .  A
C113        C124   1.431       .  A
C114        C122   1.383       .  A
C114        C125   1.419       .  A
C115        C116   1.373       .  A
C115        H127   1.082       .  S
C116        H128   1.082       .  S
C117        C118   1.379       .  A
C117        H129   1.082       .  S
C118        H130   1.082       .  S
C119        C120   1.372       .  A
C119        H131   1.081       .  S
C120        H132   1.082       .  S
C121        C122   1.374       .  A
C121        H133   1.079       .  S
C122        H134   1.081       .  S
C123        C569   1.481       .  S
C125        C556   1.493       .  S
N137        C142   1.352       .  A
N137        C141   1.356   1_545  A
N137        H169   1.032       .  S
N138        C145   1.350   1_565  A
N138        C146   1.348   1_565  A
N139        C144   1.353       .  A
N139        C143   1.353       .  A
N139        H170   1.036   1_545  S
N140        C147   1.344       .  A
N140        C148   1.344       .  A
C141        C149   1.391       .  A
C141        C157   1.436       .  A
C142        C150   1.383       .  A
C142        C862   1.421       .  A
C143        C151   1.390       .  A
C143        C160   1.424       .  A
C144        C159   1.423   1_545  A
C144        C152   1.386       .  A
C145        C157   1.414   1_545  A
C145        C153   1.385       .  A
C146        C154   1.387       .  A
C146        C864   1.414       .  A
C147        C155   1.387       .  A
C147        C158   1.406       .  A
C148        C156   1.386       .  A
C148        C159   1.405   1_545  A
C149        C150   1.376   1_565  A
C149        H161   1.078       .  S
C150        H162   1.081       .  S
C151        C152   1.377       .  A
C151        H163   1.080       .  S
C152        H164   1.082       .  S
C153        C154   1.375       .  A
C153        H165   1.082       .  S
C154        H166   1.082       .  S
C155        C156   1.378       .  A
C155        H167   1.082       .  S
C156        H168   1.082       .  S
C157        C194   1.538       .  S
C158        C846   1.422       .  A
C158        C516   1.486       .  S
C159        C192   1.535       .  S
C160        C850   1.416       .  A
C160        C529   1.491       .  S
N171        C176   1.350       .  A
N171        C175   1.353       .  A
N171        H203   1.041       .  S
N172        C179   1.348       .  A
N172        C180   1.351       .  A
N173        C178   1.351       .  A
N173        C177   1.350       .  A
N173        H204   1.042       .  S
N174        C181   1.354       .  A
N174        C182   1.354       .  A
C175        C183   1.385       .  A
C175        C191   1.408       .  A
C176        C192   1.413       .  A
C176        C184   1.383       .  A
C177        C185   1.383       .  A
C177        C194   1.408       .  A
C178        C193   1.412       .  A
C178        C186   1.388       .  A
C179        C191   1.409       .  A
C179        C187   1.383       .  A
C180        C194   1.421       .  A
C180        C188   1.389       .  A
C181        C189   1.389       .  A
C181        C192   1.431       .  A
C182        C190   1.382       .  A
C182        C193   1.416       .  A
C183        C184   1.373       .  A
C183        H195   1.080       .  S
C184        H196   1.081       .  S
C185        C186   1.380       .  A
C185        H197   1.081       .  S
C186        H198   1.082       .  S
C187        C188   1.373       .  A
C187        H199   1.082       .  S
C188        H200   1.081       .  S
C189        C190   1.372       .  A
C189        H201   1.078       .  S
C190        H202   1.081       .  S
C191        C496   1.484       .  S
C193        C476   1.494       .  S
N205        C210   1.352       .  A
N205        C209   1.351       .  A
N205        H237   1.042       .  S
N206        C213   1.348       .  A
N206        C214   1.351       .  A
N207        C212   1.357       .  A
N207        C211   1.355       .  A
N207        H238   1.041       .  S
N208        C215   1.352       .  A
N208        C216   1.350       .  A
C209        C217   1.386       .  A
C209        C929   1.411       .  A
C210        C226   1.410       .  A
C210        C218   1.386       .  A
C211        C219   1.384       .  A
C211        C228   1.419       .  A
C212        C227   1.424   1_554  A
C212        C220   1.390       .  A
C213        C225   1.410   1_554  A
C213        C221   1.386       .  A
C214        C228   1.418       .  A
C214        C222   1.386       .  A
C215        C223   1.387       .  A
C215        C226   1.419       .  A
C216        C224   1.386       .  A
C216        C931   1.413       .  A
C217        C218   1.376       .  A
C217        H229   1.082       .  S
C218        H230   1.082       .  S
C219        C220   1.376       .  A
C219        H231   1.082       .  S
C220        H232   1.080       .  S
C221        C222   1.369       .  A
C221        H233   1.081       .  S
C222        H234   1.081       .  S
C223        C224   1.372       .  A
C223        H235   1.082       .  S
C224        H236   1.082       .  S
C225        C913   1.410       .  A
C225        C456   1.479       .  S
C226        C262   1.538       .  S
C227        C920   1.417       .  A
C227        C436   1.495       .  S
C228        C260   1.544       .  S
N239        C244   1.352       .  A
N239        C243   1.353       .  A
N239        H271   1.040       .  S
N240        C247   1.349       .  A
N240        C248   1.350       .  A
N241        C246   1.352       .  A
N241        C245   1.353       .  A
N241        H272   1.040       .  S
N242        C249   1.353       .  A
N242        C250   1.352       .  A
C243        C251   1.385       .  A
C243        C259   1.423       .  A
C244        C260   1.429       .  A
C244        C252   1.386       .  A
C245        C253   1.387       .  A
C245        C262   1.430       .  A
C246        C261   1.428       .  A
C246        C254   1.389       .  A
C247        C259   1.418       .  A
C247        C255   1.385       .  A
C248        C262   1.424       .  A
C248        C256   1.386       .  A
C249        C257   1.387       .  A
C249        C260   1.430       .  A
C250        C258   1.386       .  A
C250        C261   1.424       .  A
C251        C252   1.376       .  A
C251        H263   1.080       .  S
C252        H264   1.081       .  S
C253        C254   1.376       .  A
C253        H265   1.081       .  S
C254        H266   1.080       .  S
C255        C256   1.376       .  A
C255        H267   1.081       .  S
C256        H268   1.082       .  S
C257        C258   1.380       .  A
C257        H269   1.082       .  S
C258        H270   1.082       .  S
C259        C396   1.494       .  S
C261        C409   1.498       .  S
O273       Cu281   2.019       .  S
O273        C987   1.279       .  A
O274       Cu281   2.017       .  S
O274        C988   1.277       .  A
O275       Cu281   2.028       .  S
O275        C989   1.281       .  A
O276       Cu281   2.024       .  S
O276        C990   1.280       .  A
O277       Cu282   2.011       .  S
O277        C286   1.277       .  A
O278       Cu282   2.012       .  S
O278        C285   1.278       .  A
O279       Cu282   2.034       .  S
O279        C284   1.280   1_554  A
O280       Cu282   2.029       .  S
O280        C283   1.281       .  A
Cu281      Cu986   2.366       .  S
Cu282      Cu985   2.367   1_554  S
C283        C689   1.500       .  S
C283        O977   1.279   1_554  A
C284        C367   1.481   1_655  S
C284        O978   1.279       .  A
C285        C616   1.496       .  S
C285        O979   1.280   1_554  A
C286        C314   1.474       .  S
C286        O980   1.280   1_554  A
O287       Cu295   2.020       .  S
O287        C297   1.279       .  A
O288       Cu295   2.010       .  S
O288        C298   1.278       .  A
O289       Cu295   2.007       .  S
O289        C299   1.277       .  A
O290       Cu295   2.001       .  S
O290        C300   1.277       .  A
O291       Cu296   2.004       .  S
O291        C300   1.278       .  A
O292       Cu296   2.004       .  S
O292        C299   1.277       .  A
O293       Cu296   1.993       .  S
O293        C298   1.275       .  A
O294       Cu296   1.993       .  S
O294        C297   1.277       .  A
Cu295      Cu296   2.371       .  S
C297        C656   1.489       .  S
C298        C382   1.461   1_655  S
C299        C326   1.465       .  S
C300        C576   1.485       .  S
O301       Cu309   2.012       .  S
O301       C1015   1.278       .  A
O302       Cu309   2.000       .  S
O302       C1016   1.277       .  A
O303       Cu309   2.016       .  S
O303       C1017   1.279       .  A
O304       Cu309   2.019   1_565  S
O304        C314   1.279       .  A
O305       Cu310   2.011   1_565  S
O305       C1018   1.277       .  A
O306       Cu310   2.011       .  S
O306        C313   1.278       .  A
O307       Cu310   2.003       .  S
O307        C312   1.277       .  A
O308       Cu310   2.017       .  S
O308        C311   1.279       .  A
Cu309     Cu1014   2.370   1_554  S
Cu310     Cu1013   2.370       .  S
C311        C536   1.495       .  S
C311       O1005   1.279       .  A
C312       C1044   1.464   1_655  S
C312       O1006   1.277       .  A
C313        C596   1.494       .  S
C313       O1007   1.280       .  A
C314       O1009   1.278   1_554  A
O315       Cu323   2.015       .  S
O315        C325   1.278       .  A
O316       Cu323   2.001   1_565  S
O316        C326   1.277       .  A
O317       Cu323   2.006       .  S
O317        C327   1.278       .  A
O318       Cu323   2.020       .  S
O318        C328   1.279   1_545  A
O319       Cu324   2.020   1_565  S
O319        C328   1.279       .  A
O320       Cu324   2.009       .  S
O320        C327   1.278       .  A
O321       Cu324   2.010   1_565  S
O321        C326   1.278       .  A
O322       Cu324   2.015       .  S
O322        C325   1.279       .  A
Cu323      Cu324   2.372       .  S
C325        C549   1.492       .  S
C327        C489   1.480   1_545  S
C328        C353   1.475   1_655  S
O329       Cu337   2.006   1_565  S
O329        C339   1.277       .  A
O330       Cu337   1.997       .  S
O330       C1044   1.276       .  A
O331       Cu337   2.001       .  S
O331        C341   1.278       .  A
O332       Cu337   2.004   1_565  S
O332        C342   1.277       .  A
O333       Cu338   2.010   1_565  S
O333       C1046   1.278   1_554  A
O334       Cu338   2.007       .  S
O334       C1045   1.278   1_554  A
O335       Cu338   1.998       .  S
O335        C340   1.276       .  A
O336       Cu338   2.003   1_565  S
O336       C1043   1.277   1_564  A
Cu337     Cu1042   2.370   1_545  S
Cu338     Cu1041   2.372   1_554  S
C339        C509   1.492       .  S
C339       O1040   1.280       .  A
C340       C1016   1.461   1_455  S
C340       O1034   1.277   1_554  A
C341       C1153   1.488       .  S
C341       O1038   1.278       .  A
C342       C1073   1.467       .  S
C342       O1037   1.278       .  A
O343       Cu351   2.018       .  S
O343        C353   1.279       .  A
O344       Cu351   2.024       .  S
O344        C354   1.280       .  A
O345       Cu351   2.027   1_545  S
O345        C355   1.280       .  A
O346       Cu351   2.028       .  S
O346        C356   1.280       .  A
O347       Cu352   2.010       .  S
O347        C356   1.277       .  A
O348       Cu352   2.009   1_545  S
O348        C355   1.278       .  A
O349       Cu352   2.026       .  S
O349        C354   1.280       .  A
O350       Cu352   2.021       .  S
O350        C353   1.279       .  A
Cu351      Cu352   2.367       .  S
C354        C469   1.500       .  S
C355        C416   1.497       .  S
C356        C384   1.475       .  S
O357       Cu365   2.037       .  S
O357        C367   1.281   1_554  A
O358       Cu365   2.027       .  S
O358        C368   1.281   1_554  A
O359       Cu365   2.005       .  S
O359        C369   1.277   1_554  A
O360       Cu365   2.016       .  S
O360        C370   1.279   1_554  A
O361       Cu366   2.025       .  S
O361       C1074   1.280       .  A
O362       Cu366   2.009       .  S
O362       C1073   1.278       .  A
O363       Cu366   2.020       .  S
O363       C1072   1.279       .  A
O364       Cu366   2.030       .  S
O364       C1071   1.281       .  A
Cu365     Cu1070   2.370   1_554  S
Cu366     Cu1069   2.368       .  S
C367       O1068   1.278       .  A
C368        C676   1.485       .  S
C368       O1067   1.277       .  A
C369       C1046   1.463       .  S
C369       O1066   1.277       .  A
C370        C429   1.493       .  S
C370       O1065   1.279       .  A
O371       Cu379   2.005       .  S
O371        C381   1.278       .  A
O372       Cu379   1.998       .  S
O372        C382   1.276       .  A
O373       Cu379   2.019       .  S
O373        C383   1.280       .  A
O374       Cu379   2.024       .  S
O374        C384   1.279       .  A
O375       Cu380   2.014       .  S
O375        C384   1.278       .  A
O376       Cu380   2.012       .  S
O376        C383   1.278       .  A
O377       Cu380   2.005       .  S
O377        C382   1.278       .  A
O378       Cu380   2.014       .  S
O378        C381   1.279       .  A
Cu379      Cu380   2.369       .  S
C381        C629   1.491       .  S
C383        C389   1.495       .  S
C385        C386   1.406       .  A
C385        C390   1.401       .  A
C385        F403   1.358       .  S
C386        C387   1.405       .  A
C386        C391   1.488       .  S
C387        C388   1.401       .  A
C387        F392   1.358       .  S
C388        C389   1.413       .  A
C388        F404   1.358       .  S
C389        C390   1.412       .  A
C390        F393   1.357       .  S
C391        C394   1.410       .  A
C391        C398   1.405       .  A
C394        C395   1.405       .  A
C394        F399   1.358   1_455  S
C395        C396   1.408       .  A
C395        F401   1.358   1_455  S
C396        C397   1.406       .  A
C397        C398   1.395       .  A
C397        F400   1.358       .  S
C398        F402   1.358       .  S
C405        C406   1.406       .  A
C405        C410   1.401       .  A
C405        F423   1.358       .  S
C406        C407   1.408       .  A
C406        C411   1.489       .  S
C407        C408   1.404       .  A
C407        F412   1.358       .  S
C408        C409   1.408       .  A
C408        F424   1.357   1_455  S
C409        C410   1.408       .  A
C410        F413   1.358       .  S
C411        C414   1.406       .  A
C411        C418   1.404       .  A
C414        C415   1.404       .  A
C414        F419   1.358       .  S
C415        C416   1.413       .  A
C415        F421   1.358       .  S
C416        C417   1.414       .  A
C417        C418   1.401       .  A
C417        F420   1.358       .  S
C418        F422   1.358       .  S
C425        C430   1.401       .  A
C425       C1130   1.404       .  A
C425        F443   1.358       .  S
C426        C427   1.407       .  A
C426       C1129   1.407   1_556  A
C426        C431   1.491       .  S
C427        C428   1.401       .  A
C427        F432   1.358       .  S
C428        C429   1.411       .  A
C428        F444   1.358       .  S
C429       C1134   1.412   1_556  A
C430       C1133   1.413       .  A
C430        F433   1.357       .  S
C431        C438   1.410       .  A
C431       C1138   1.407       .  A
C434        C435   1.399       .  A
C434       C1135   1.406       .  A
C434        F439   1.358       .  S
C435       C1140   1.405       .  A
C435        F441   1.358       .  S
C436        C437   1.406       .  A
C436       C1139   1.406       .  A
C437        C438   1.403       .  A
C437        F440   1.358   1_556  S
C438        F442   1.358   1_556  S
C445        C450   1.393       .  A
C445       C1150   1.403       .  A
C445        F463   1.358       .  S
C446        C447   1.402   1_556  A
C446       C1149   1.400       .  A
C446        C451   1.470       .  S
C447        C448   1.398       .  A
C447        F452   1.358       .  S
C448        C449   1.413   1_554  A
C448        F464   1.358       .  S
C449       C1154   1.412       .  A
C449       C1045   1.483       .  S
C450       C1153   1.411       .  A
C450        F453   1.358       .  S
C451        C458   1.406   1_556  A
C451       C1158   1.401       .  A
C454        C455   1.390       .  A
C454       C1155   1.403       .  A
C454        F459   1.358       .  S
C455       C1160   1.403       .  A
C455        F461   1.356       .  S
C456        C457   1.405   1_556  A
C456       C1159   1.404       .  A
C457        C458   1.400       .  A
C457        F460   1.358       .  S
C458        F462   1.358       .  S
C465        C466   1.407       .  A
C465        C470   1.405       .  A
C465        F483   1.358       .  S
C466        C467   1.405       .  A
C466        C471   1.492       .  S
C467        C468   1.402       .  A
C467        F472   1.358       .  S
C468        C469   1.413       .  A
C468        F484   1.357       .  S
C469        C470   1.415       .  A
C470        F473   1.358       .  S
C471        C474   1.406       .  A
C471        C478   1.411       .  A
C474        C475   1.400       .  A
C474        F479   1.358   1_565  S
C475        C476   1.408       .  A
C475        F481   1.358   1_565  S
C476        C477   1.406       .  A
C477        C478   1.405       .  A
C477        F480   1.358       .  S
C478        F482   1.357       .  S
C485        C486   1.402       .  A
C485        C490   1.397       .  A
C485        F503   1.358       .  S
C486        C487   1.404   1_565  A
C486        C491   1.476       .  S
C487        C488   1.400       .  A
C487        F492   1.358       .  S
C488        C489   1.409   1_545  A
C488        F504   1.358       .  S
C489        C490   1.409       .  A
C490        F493   1.358       .  S
C491        C494   1.406       .  A
C491        C498   1.402   1_565  A
C494        C495   1.401       .  A
C494        F499   1.358       .  S
C495        C496   1.404       .  A
C495        F501   1.355       .  S
C496        C497   1.406       .  A
C497        C498   1.396   1_565  A
C497        F500   1.358   1_565  S
C498        F502   1.358       .  S
C505        C510   1.398   1_545  A
C505       C1210   1.402   1_554  A
C505        F523   1.358   1_545  S
C506        C507   1.402       .  A
C506       C1209   1.403       .  A
C506        C511   1.480       .  S
C507        C508   1.400       .  A
C507        F512   1.358       .  S
C508        C509   1.415   1_545  A
C508        F524   1.358       .  S
C509       C1214   1.412       .  A
C510       C1213   1.412   1_564  A
C510        F513   1.358       .  S
C511        C518   1.408       .  A
C511       C1218   1.403   1_545  A
C514        C515   1.395       .  A
C514       C1215   1.402   1_565  A
C514        F519   1.358       .  S
C515       C1220   1.408   1_566  A
C515        F521   1.358       .  S
C516        C517   1.403       .  A
C516       C1219   1.407   1_545  A
C517        C518   1.401       .  A
C517        F520   1.357       .  S
C518        F522   1.357       .  S
C525        C526   1.406       .  A
C525        C530   1.403       .  A
C525        F543   1.357       .  S
C526       C1231   1.405   1_545  A
C526        C531   1.482       .  S
C527        C528   1.397       .  A
C527       C1230   1.405   1_565  A
C527        F532   1.358       .  S
C528       C1233   1.406   1_565  A
C528        F544   1.358       .  S
C529        C530   1.407       .  A
C529       C1232   1.406   1_545  A
C530        F533   1.358       .  S
C531        C534   1.403       .  A
C531       C1242   1.403       .  A
C534        C535   1.402       .  A
C534        F539   1.358       .  S
C535        C536   1.414       .  A
C535        F541   1.358       .  S
C536       C1241   1.413       .  A
C537        C538   1.401       .  A
C537       C1240   1.413   1_556  A
C537        F540   1.358       .  S
C538       C1235   1.404   1_556  A
C538        F542   1.358       .  S
C545        C546   1.403       .  A
C545        C550   1.399       .  A
C545        F563   1.358       .  S
C546        C547   1.404       .  A
C546        C551   1.482       .  S
C547        C548   1.402       .  A
C547        F552   1.358       .  S
C548        C549   1.414       .  A
C548        F564   1.358       .  S
C549        C550   1.411       .  A
C550        F553   1.358       .  S
C551        C554   1.404       .  A
C551        C558   1.407       .  A
C554        C555   1.399       .  A
C554        F559   1.358       .  S
C555        C556   1.409       .  A
C555        F561   1.358       .  S
C556        C557   1.406       .  A
C557        C558   1.402       .  A
C557        F560   1.358       .  S
C558        F562   1.358       .  S
C565        C566   1.403       .  A
C565        C570   1.394       .  A
C565        F583   1.359       .  S
C566        C567   1.405       .  A
C566        C571   1.473       .  S
C567        C568   1.399       .  A
C567        F572   1.357       .  S
C568        C569   1.403       .  A
C568        F584   1.357       .  S
C569        C570   1.405       .  A
C570        F573   1.357       .  S
C571        C574   1.402       .  A
C571        C578   1.401       .  A
C574        C575   1.397       .  A
C574        F579   1.358       .  S
C575        C576   1.412       .  A
C575        F581   1.358       .  S
C576        C577   1.413       .  A
C577        C578   1.396       .  A
C577        F580   1.357       .  S
C578        F582   1.358       .  S
C585        C586   1.410       .  A
C585        C590   1.405       .  A
C585        F603   1.358   1_655  S
C586       C1291   1.405       .  A
C586        C591   1.489       .  S
C587        C588   1.396       .  A
C587       C1290   1.404   1_556  A
C587        F592   1.358       .  S
C588       C1293   1.408   1_556  A
C588        F604   1.358       .  S
C589        C590   1.408       .  A
C589       C1292   1.408       .  A
C590        F593   1.358   1_655  S
C591        C598   1.406       .  A
C591       C1298   1.406       .  A
C594        C595   1.402       .  A
C594       C1295   1.404       .  A
C594        F599   1.358       .  S
C595       C1300   1.412       .  A
C595        F601   1.358       .  S
C596        C597   1.413       .  A
C596       C1299   1.412       .  A
C597        C598   1.400       .  A
C597        F600   1.358       .  S
C598        F602   1.358       .  S
C605        C606   1.404       .  A
C605        C610   1.398       .  A
C605       F1327   1.358       .  S
C606        C607   1.409       .  A
C606        C611   1.486       .  S
C607        C608   1.403       .  A
C607        F612   1.358       .  S
C608        C609   1.407       .  A
C608        F624   1.357       .  S
C609        C610   1.408       .  A
C610        F613   1.358       .  S
C611        C618   1.406       .  A
C611       C1318   1.403       .  A
C614        C615   1.400       .  A
C614       C1315   1.403       .  A
C614        F619   1.358       .  S
C615        C616   1.413       .  A
C615        F621   1.358       .  S
C616       C1321   1.413   1_554  A
C617        C618   1.403       .  A
C617       C1320   1.412       .  A
C617        F620   1.357       .  S
C618        F622   1.358       .  S
F623       C1309   1.358       .  S
C625        C626   1.402       .  A
C625        C630   1.398       .  A
C625        F643   1.358       .  S
C626        C627   1.404       .  A
C626        C631   1.481       .  S
C627        C628   1.401       .  A
C627        F632   1.358       .  S
C628        C629   1.413       .  A
C628        F644   1.358       .  S
C629        C630   1.413       .  A
C630        F633   1.358       .  S
C631        C634   1.407       .  A
C631        C638   1.404       .  A
C634        C635   1.402       .  A
C634        F639   1.358       .  S
C635        C636   1.406       .  A
C635        F641   1.357       .  S
C636        C637   1.406       .  A
C637        C638   1.398       .  A
C637        F640   1.357       .  S
C638        F642   1.358       .  S
C645        C646   1.406       .  A
C645        C650   1.403       .  A
C645        F663   1.358       .  S
C646        C647   1.403       .  A
C646        C651   1.479       .  S
C647        C648   1.394       .  A
C647        F652   1.358       .  S
C648        C649   1.406       .  A
C648        F664   1.359       .  S
C649        C650   1.409       .  A
C650        F653   1.358       .  S
C651        C654   1.400       .  A
C651        C658   1.406       .  A
C654        C655   1.392       .  A
C654        F659   1.358       .  S
C655        C656   1.413       .  A
C655        F661   1.358       .  S
C656        C657   1.414       .  A
C657        C658   1.404       .  A
C657        F660   1.358       .  S
C658        F662   1.358       .  S
C665        C670   1.397       .  A
C665       C1370   1.403       .  A
C665        F683   1.358       .  S
C666        C667   1.406       .  A
C666       C1369   1.402       .  A
C666        C671   1.477       .  S
C667        C668   1.402       .  A
C667        F672   1.357   1_556  S
C668        C669   1.404       .  A
C668        F684   1.356   1_556  S
C669       C1374   1.407       .  A
C670       C1373   1.408       .  A
C670        F673   1.358       .  S
C671        C678   1.401       .  A
C671       C1378   1.404   1_556  A
C674        C675   1.397       .  A
C674       C1375   1.402       .  A
C674        F679   1.358       .  S
C675       C1380   1.413       .  A
C675        F681   1.358       .  S
C676        C677   1.413       .  A
C676       C1379   1.408   1_556  A
C677        C678   1.401       .  A
C677        F680   1.358       .  S
C678        F682   1.358       .  S
C685        C690   1.406       .  A
C685       C1390   1.405       .  A
C685        F703   1.358       .  S
C686        C687   1.406       .  A
C686       C1389   1.406   1_554  A
C686        C691   1.493       .  S
C687        C688   1.402       .  A
C687        F692   1.358       .  S
C688        C689   1.412       .  A
C688        F704   1.357       .  S
C689       C1394   1.415   1_554  A
C690       C1393   1.416       .  A
C690        F693   1.358       .  S
C691        C698   1.411   1_554  A
C691       C1398   1.407       .  A
C694        C695   1.401       .  A
C694       C1395   1.406       .  A
C694        F699   1.358       .  S
C695       C1400   1.406       .  A
C695        F701   1.358       .  S
C696        C697   1.407   1_554  A
C696       C1399   1.406       .  A
C697        C698   1.406       .  A
C697        F700   1.358       .  S
C698        F702   1.357       .  S
N705        C710   1.358       .  A
N705        C709   1.354       .  A
N705        H737   1.038       .  S
N706        C713   1.351       .  A
N706        C714   1.352       .  A
N707        C712   1.349       .  A
N707        C711   1.349       .  A
N707        H738   1.042       .  S
N708        C715   1.351       .  A
N708        C716   1.355       .  A
C709        C717   1.388       .  A
C709        C725   1.426       .  A
C710        C726   1.424       .  A
C710        C718   1.387       .  A
C711        C719   1.386       .  A
C712        C727   1.407       .  A
C712        C720   1.385       .  A
C713        C725   1.424       .  A
C713        C721   1.388       .  A
C714        C728   1.411       .  A
C714        C722   1.382       .  A
C715        C723   1.386       .  A
C716        C724   1.385       .  A
C716        C727   1.424       .  A
C717        C718   1.379       .  A
C717        H729   1.082       .  S
C718        H730   1.082       .  S
C719        C720   1.375       .  A
C719        H731   1.083       .  S
C720        H732   1.082       .  S
C721        C722   1.368       .  A
C721        H733   1.080       .  S
C722        H734   1.080       .  S
C723        C724   1.373       .  A
C723        H735   1.081       .  S
C724        H736   1.081       .  S
C725        C759   1.536       .  S
C726       C1400   1.503       .  S
C727        C761   1.539       .  S
C728       C1373   1.489       .  S
N739        C744   1.350       .  A
N739        C743   1.350       .  A
N739        H771   1.037       .  S
N740        C747   1.350       .  A
N740        C748   1.349       .  A
N741        C746   1.354       .  A
N741        C745   1.356       .  A
N741        H772   1.034       .  S
N742        C749   1.348       .  A
N742        C750   1.350       .  A
C743        C751   1.387       .  A
C743        C759   1.414       .  A
C744        C760   1.413       .  A
C744        C752   1.387       .  A
C745        C753   1.387       .  A
C745        C762   1.424       .  A
C746        C761   1.429       .  A
C746        C754   1.388       .  A
C747        C759   1.417       .  A
C747        C755   1.386       .  A
C748        C762   1.416       .  A
C748        C756   1.387       .  A
C749        C757   1.387       .  A
C749        C760   1.415       .  A
C750        C758   1.385       .  A
C750        C761   1.419       .  A
C751        C752   1.375       .  A
C751        H763   1.082       .  S
C752        H764   1.082       .  S
C753        C754   1.377       .  A
C753        H765   1.081       .  S
C754        H766   1.082       .  S
C755        C756   1.376       .  A
C755        H767   1.082       .  S
C756        H768   1.082       .  S
C757        C758   1.374       .  A
C757        H769   1.080       .  S
C758        H770   1.082       .  S
C760       C1353   1.483       .  S
C762       C1340   1.492       .  S
N773        C778   1.361       .  A
N773        C777   1.356       .  A
N773        H805   1.035       .  S
N774        C781   1.348       .  A
N774        C782   1.347       .  A
N775        C780   1.356       .  A
N775        C779   1.354       .  A
N775        H806   1.036       .  S
N776        C783   1.351       .  A
N776        C784   1.351       .  A
C777        C785   1.381       .  A
C778        C794   1.445       .  A
C778        C786   1.392       .  A
C779        C787   1.389       .  A
C779        C796   1.428       .  A
C780        C795   1.423   1_556  A
C780        C788   1.387       .  A
C781        C793   1.411   1_556  A
C781        C789   1.386       .  A
C782        C796   1.409       .  A
C782        C790   1.385       .  A
C783        C791   1.382       .  A
C783        C794   1.422       .  A
C784        C792   1.386       .  A
C785        C786   1.373       .  A
C785        H797   1.081       .  S
C786        H798   1.076       .  S
C787        C788   1.379       .  A
C787        H799   1.081       .  S
C788        H800   1.082       .  S
C789        C790   1.377       .  A
C789        H801   1.081   1_655  S
C790        H802   1.082       .  S
C791        C792   1.373       .  A
C791        H803   1.081       .  S
C792        H804   1.079       .  S
C793       C1293   1.495       .  S
C794        C830   1.549       .  S
C795       C1313   1.495       .  S
C796        C828   1.537       .  S
N807        C812   1.350       .  A
N807        C811   1.351       .  A
N807        H839   1.043       .  S
N808        C815   1.349       .  A
N808        C816   1.352       .  A
N809        C814   1.351       .  A
N809        C813   1.351       .  A
N809        H840   1.044       .  S
N810        C817   1.356       .  A
N810        C818   1.353       .  A
C811        C819   1.386       .  A
C811        C827   1.407       .  A
C812        C828   1.410       .  A
C812        C820   1.387       .  A
C813        C821   1.385       .  A
C813        C830   1.406       .  A
C814        C829   1.410       .  A
C814        C822   1.388       .  A
C815        C827   1.412       .  A
C815        C823   1.385       .  A
C816        C830   1.422       .  A
C816        C824   1.387       .  A
C817        C825   1.389       .  A
C817        C828   1.431       .  A
C818        C826   1.383       .  A
C818        C829   1.417       .  A
C819        C820   1.374       .  A
C819        H831   1.082       .  S
C820        H832   1.082       .  S
C821        C822   1.380       .  A
C821        H833   1.082       .  S
C822        H834   1.082       .  S
C823        C824   1.375       .  A
C823        H835   1.081       .  S
C824        H836   1.082       .  S
C825        C826   1.375       .  A
C825        H837   1.079       .  S
C826        H838   1.081       .  S
C827       C1273   1.484       .  S
C829       C1260   1.494       .  S
N841        C846   1.354       .  A
N841        C845   1.360       .  A
N841        H873   1.034       .  S
N842        C849   1.351       .  A
N842        C850   1.350       .  A
N843        C848   1.354       .  A
N843        C847   1.355       .  A
N843        H874   1.035   1_545  S
N844        C851   1.346       .  A
N844        C852   1.346       .  A
C845        C853   1.393       .  A
C845        C861   1.442   1_545  A
C846        C854   1.381       .  A
C847        C855   1.389       .  A
C847        C864   1.424   1_556  A
C848        C863   1.425   1_545  A
C848        C856   1.386       .  A
C849        C861   1.419   1_545  A
C849        C857   1.386       .  A
C850        C858   1.386       .  A
C851        C859   1.387       .  A
C851        C862   1.410   1_556  A
C852        C860   1.385       .  A
C852        C863   1.407   1_545  A
C853        C854   1.377       .  A
C853        H865   1.077       .  S
C854        H866   1.082       .  S
C855        C856   1.377       .  A
C855        H867   1.080       .  S
C856        H868   1.082       .  S
C857        C858   1.378       .  A
C857        H869   1.082       .  S
C858        H870   1.082       .  S
C859        C860   1.377       .  A
C859        H871   1.082       .  S
C860        H872   1.082       .  S
C861        C898   1.547       .  S
C862       C1220   1.487       .  S
C863        C896   1.538       .  S
C864       C1233   1.491       .  S
N875        C880   1.352       .  A
N875        C879   1.352       .  A
N875        H907   1.042       .  S
N876        C883   1.350       .  A
N876        C884   1.354       .  A
N877        C882   1.354       .  A
N877        C881   1.354       .  A
N877        H908   1.043       .  S
N878        C885   1.356       .  A
N878        C886   1.352       .  A
C879        C887   1.386       .  A
C879        C895   1.409       .  A
C880        C896   1.414       .  A
C880        C888   1.384       .  A
C881        C889   1.381       .  A
C881        C898   1.411       .  A
C882        C897   1.413       .  A
C882        C890   1.387       .  A
C883        C895   1.411       .  A
C883        C891   1.383       .  A
C884        C898   1.424       .  A
C884        C892   1.389       .  A
C885        C893   1.389       .  A
C885        C896   1.429       .  A
C886        C894   1.383       .  A
C886        C897   1.415       .  A
C887        C888   1.371       .  A
C887        H899   1.079       .  S
C888        H900   1.082       .  S
C889        C890   1.378       .  A
C889        H901   1.079       .  S
C890        H902   1.082       .  S
C891        C892   1.371       .  A
C891        H903   1.083       .  S
C892        H904   1.081       .  S
C893        C894   1.371       .  A
C893        H905   1.079       .  S
C894        H906   1.081       .  S
C895       C1200   1.485       .  S
C897       C1180   1.493       .  S
N909        C914   1.352       .  A
N909        C913   1.351       .  A
N909        H941   1.041       .  S
N910        C917   1.349       .  A
N910        C918   1.351       .  A
N911        C916   1.356       .  A
N911        C915   1.354       .  A
N911        H942   1.042       .  S
N912        C919   1.354       .  A
N912        C920   1.350       .  A
C913        C921   1.386       .  A
C914        C930   1.413       .  A
C914        C922   1.387       .  A
C915        C923   1.384       .  A
C915        C932   1.416       .  A
C916        C931   1.419       .  A
C916        C924   1.388       .  A
C917        C929   1.410       .  A
C917        C925   1.385       .  A
C918        C932   1.418       .  A
C918        C926   1.386       .  A
C919        C927   1.387       .  A
C919        C930   1.422       .  A
C920        C928   1.387       .  A
C921        C922   1.376       .  A
C921        H933   1.083       .  S
C922        H934   1.082       .  S
C923        C924   1.376       .  A
C923        H935   1.083       .  S
C924        H936   1.081       .  S
C925        C926   1.369       .  A
C925        H937   1.080       .  S
C926        H938   1.081       .  S
C927        C928   1.372       .  A
C927        H939   1.082       .  S
C928        H940   1.082       .  S
C929       C1160   1.484       .  S
C930        C966   1.538       .  S
C931       C1140   1.491       .  S
C932        C964   1.546       .  S
N943        C948   1.356       .  A
N943        C947   1.352       .  A
N943        H975   1.031       .  S
N944        C951   1.350       .  A
N944        C952   1.349       .  A
N945        C950   1.357       .  A
N945        C949   1.356       .  A
N945        H976   1.037       .  S
N946        C953   1.350       .  A
N946        C954   1.348       .  A
C947        C955   1.382       .  A
C947        C963   1.419       .  A
C948        C964   1.435       .  A
C948        C956   1.389       .  A
C949        C957   1.386       .  A
C949        C966   1.427       .  A
C950        C965   1.425       .  A
C950        C958   1.387       .  A
C951        C963   1.414       .  A
C951        C959   1.384       .  A
C952        C966   1.419       .  A
C952        C960   1.387       .  A
C953        C961   1.388       .  A
C953        C964   1.427       .  A
C954        C962   1.386       .  A
C954        C965   1.418       .  A
C955        C956   1.375       .  A
C955        H967   1.081       .  S
C956        H968   1.080       .  S
C957        C958   1.374       .  A
C957        H969   1.080       .  S
C958        H970   1.080       .  S
C959        C960   1.376       .  A
C959        H971   1.081   1_455  S
C960        H972   1.082       .  S
C961        C962   1.381       .  A
C961        H973   1.081       .  S
C962        H974   1.082       .  S
C963       C1100   1.491       .  S
C965       C1113   1.496       .  S
O977       Cu985   2.019       .  S
O978       Cu985   2.020       .  S
O979       Cu985   2.031       .  S
O980       Cu985   2.025       .  S
O981       Cu986   2.002       .  S
O981        C990   1.276       .  A
O982       Cu986   2.004       .  S
O982        C989   1.277       .  A
O983       Cu986   2.043       .  S
O983        C988   1.282       .  A
O984       Cu986   2.044       .  S
O984        C987   1.283       .  A
C987       C1393   1.506       .  S
C988       C1071   1.483   1_655  S
C989       C1320   1.495       .  S
C990       C1018   1.471       .  S
O991       Cu999   2.011       .  S
O991       C1001   1.279       .  A
O992       Cu999   2.009       .  S
O992       C1002   1.278       .  A
O993       Cu999   1.994       .  S
O993       C1003   1.275       .  A
O994       Cu999   1.993       .  S
O994       C1004   1.276       .  A
O995      Cu1000   2.019       .  S
O995       C1004   1.280       .  A
O996      Cu1000   2.015       .  S
O996       C1003   1.279       .  A
O997      Cu1000   1.990       .  S
O997       C1002   1.275       .  A
O998      Cu1000   1.995       .  S
O998       C1001   1.276       .  A
Cu999     Cu1000   2.373       .  S
C1001      C1360   1.483       .  S
C1002      C1086   1.460   1_655  S
C1003      C1030   1.464       .  S
C1004      C1280   1.484       .  S
O1005     Cu1013   2.020       .  S
O1006     Cu1013   2.007       .  S
O1007     Cu1013   2.019       .  S
O1008     Cu1013   2.018   1_565  S
O1008      C1018   1.279       .  A
O1009     Cu1014   2.017   1_565  S
O1010     Cu1014   2.014       .  S
O1010      C1017   1.279   1_556  A
O1011     Cu1014   2.002       .  S
O1011      C1016   1.277   1_556  A
O1012     Cu1014   2.018       .  S
O1012      C1015   1.279   1_556  A
C1015      C1240   1.494       .  S
C1017      C1300   1.492       .  S
O1019     Cu1027   2.014       .  S
O1019      C1029   1.279       .  A
O1020     Cu1027   2.003   1_565  S
O1020      C1030   1.276       .  A
O1021     Cu1027   2.018       .  S
O1021      C1031   1.280       .  A
O1022     Cu1027   2.026       .  S
O1022      C1032   1.280       .  A
O1023     Cu1028   2.009       .  S
O1023      C1032   1.277       .  A
O1024     Cu1028   2.005       .  S
O1024      C1031   1.277       .  A
O1025     Cu1028   2.009   1_565  S
O1025      C1030   1.278       .  A
O1026     Cu1028   2.017       .  S
O1026      C1029   1.279       .  A
Cu1027    Cu1028   2.371       .  S
C1029      C1253   1.491       .  S
C1031      C1193   1.485   1_545  S
C1032      C1057   1.475   1_645  S
O1033     Cu1041   2.016       .  S
O1033      C1043   1.279       .  A
O1034     Cu1041   2.006       .  S
O1035     Cu1041   1.991       .  S
O1035      C1045   1.276       .  A
O1036     Cu1041   1.997   1_565  S
O1036      C1046   1.276       .  A
O1037     Cu1042   2.013       .  S
O1038     Cu1042   2.011   1_545  S
O1039     Cu1042   2.012       .  S
O1039      C1044   1.278   1_565  A
O1040     Cu1042   2.018       .  S
C1043      C1213   1.488       .  S
O1047     Cu1055   2.019       .  S
O1047      C1057   1.279       .  A
O1048     Cu1055   2.025       .  S
O1048      C1058   1.280       .  A
O1049     Cu1055   2.023   1_545  S
O1049      C1059   1.280       .  A
O1050     Cu1055   2.019       .  S
O1050      C1060   1.278       .  A
O1051     Cu1056   2.016       .  S
O1051      C1060   1.279       .  A
O1052     Cu1056   2.020   1_545  S
O1052      C1059   1.280       .  A
O1053     Cu1056   2.020       .  S
O1053      C1058   1.280       .  A
O1054     Cu1056   2.019       .  S
O1054      C1057   1.278       .  A
Cu1055    Cu1056   2.367       .  S
C1058      C1173   1.499       .  S
C1059      C1120   1.499       .  S
C1060      C1088   1.474       .  S
O1061     Cu1069   2.026       .  S
O1061      C1071   1.279       .  A
O1062     Cu1069   2.007       .  S
O1062      C1072   1.278       .  A
O1063     Cu1069   2.008       .  S
O1063      C1073   1.277       .  A
O1064     Cu1069   2.017       .  S
O1064      C1074   1.279       .  A
O1065     Cu1070   2.018       .  S
O1066     Cu1070   2.004       .  S
O1067     Cu1070   2.006       .  S
O1068     Cu1070   2.015       .  S
C1072      C1380   1.492       .  S
C1074      C1133   1.496       .  S
O1075     Cu1083   2.017       .  S
O1075      C1085   1.279       .  A
O1076     Cu1083   2.004       .  S
O1076      C1086   1.276       .  A
O1077     Cu1083   2.028       .  S
O1077      C1087   1.281       .  A
O1078     Cu1083   2.028       .  S
O1078      C1088   1.280       .  A
O1079     Cu1084   2.009       .  S
O1079      C1088   1.277       .  A
O1080     Cu1084   2.006       .  S
O1080      C1087   1.277       .  A
O1081     Cu1084   1.995       .  S
O1081      C1086   1.277       .  A
O1082     Cu1084   2.006       .  S
O1082      C1085   1.278       .  A
Cu1083    Cu1084   2.370       .  S
C1085      C1333   1.492       .  S
C1087      C1093   1.495       .  S
C1089      C1090   1.407       .  A
C1089      C1094   1.402       .  A
C1089      F1107   1.358       .  S
C1090      C1091   1.404       .  A
C1090      C1095   1.489       .  S
C1091      C1092   1.402       .  A
C1091      F1096   1.358       .  S
C1092      C1093   1.415       .  A
C1092      F1108   1.358       .  S
C1093      C1094   1.411       .  A
C1094      F1097   1.358       .  S
C1095      C1098   1.411       .  A
C1095      C1102   1.405       .  A
C1098      C1099   1.407       .  A
C1098      F1103   1.357   1_455  S
C1099      C1100   1.406       .  A
C1099      F1105   1.358   1_455  S
C1100      C1101   1.405       .  A
C1101      C1102   1.395       .  A
C1101      F1104   1.358       .  S
C1102      F1106   1.358       .  S
C1109      C1110   1.406       .  A
C1109      C1114   1.401       .  A
C1109      F1127   1.358       .  S
C1110      C1111   1.408       .  A
C1110      C1115   1.489       .  S
C1111      C1112   1.404       .  A
C1111      F1116   1.358       .  S
C1112      C1113   1.407       .  A
C1112      F1128   1.356   1_455  S
C1113      C1114   1.407       .  A
C1114      F1117   1.358       .  S
C1115      C1118   1.405       .  A
C1115      C1122   1.404       .  A
C1118      C1119   1.404       .  A
C1118      F1123   1.358       .  S
C1119      C1120   1.415       .  A
C1119      F1125   1.358       .  S
C1120      C1121   1.414       .  A
C1121      C1122   1.402       .  A
C1121      F1124   1.357       .  S
C1122      F1126   1.358       .  S
C1129      C1134   1.402       .  A
C1129      F1147   1.358       .  S
C1130      C1131   1.406       .  A
C1130      C1135   1.489       .  S
C1131      C1132   1.404       .  A
C1131      F1136   1.358       .  S
C1132      C1133   1.412       .  A
C1132      F1148   1.357       .  S
C1134      F1137   1.358       .  S
C1135      C1142   1.410       .  A
C1138      C1139   1.399       .  A
C1138      F1143   1.357       .  S
C1139      F1145   1.359       .  S
C1140      C1141   1.405       .  A
C1141      C1142   1.404       .  A
C1141      F1144   1.358       .  S
C1142      F1146   1.357       .  S
C1149      C1154   1.392       .  A
C1149      F1167   1.359       .  S
C1150      C1151   1.404       .  A
C1150      C1155   1.478       .  S
C1151      C1152   1.401       .  A
C1151      F1156   1.358       .  S
C1152      C1153   1.414       .  A
C1152      F1168   1.358       .  S
C1154      F1157   1.358       .  S
C1155      C1162   1.408       .  A
C1158      C1159   1.390       .  A
C1158      F1163   1.358       .  S
C1159      F1165   1.357       .  S
C1160      C1161   1.406       .  A
C1161      C1162   1.403       .  A
C1161      F1164   1.358       .  S
C1162      F1166   1.357       .  S
C1169      C1170   1.405       .  A
C1169      C1174   1.402       .  A
C1169      F1187   1.358       .  S
C1170      C1171   1.405       .  A
C1170      C1175   1.489       .  S
C1171      C1172   1.404       .  A
C1171      F1176   1.358       .  S
C1172      C1173   1.414       .  A
C1172      F1188   1.358       .  S
C1173      C1174   1.414       .  A
C1174      F1177   1.358       .  S
C1175      C1178   1.405       .  A
C1175      C1182   1.410       .  A
C1178      C1179   1.398       .  A
C1178      F1183   1.358   1_565  S
C1179      C1180   1.406       .  A
C1179      F1185   1.358   1_565  S
C1180      C1181   1.407       .  A
C1181      C1182   1.406       .  A
C1181      F1184   1.358       .  S
C1182      F1186   1.357       .  S
C1189      C1190   1.401       .  A
C1189      C1194   1.398       .  A
C1189      F1207   1.358       .  S
C1190      C1191   1.402   1_565  A
C1190      C1195   1.473       .  S
C1191      C1192   1.400       .  A
C1191      F1196   1.358       .  S
C1192      C1193   1.412   1_545  A
C1192      F1208   1.358       .  S
C1193      C1194   1.411       .  A
C1194      F1197   1.358       .  S
C1195      C1198   1.405       .  A
C1195      C1202   1.401   1_565  A
C1198      C1199   1.400       .  A
C1198      F1203   1.358       .  S
C1199      C1200   1.404       .  A
C1199      F1205   1.355       .  S
C1200      C1201   1.407   1_565  A
C1201      C1202   1.396       .  A
C1201      F1204   1.358       .  S
C1202      F1206   1.358       .  S
C1209      C1214   1.399   1_545  A
C1209      F1227   1.358       .  S
C1210      C1211   1.403       .  A
C1210      C1215   1.477       .  S
C1211      C1212   1.400       .  A
C1211      F1216   1.358       .  S
C1212      C1213   1.412       .  A
C1212      F1228   1.358       .  S
C1214      F1217   1.358       .  S
C1215      C1222   1.407   1_556  A
C1218      C1219   1.397       .  A
C1218      F1223   1.358       .  S
C1219      F1225   1.357       .  S
C1220      C1221   1.405       .  A
C1221      C1222   1.401       .  A
C1221      F1224   1.358       .  S
C1222      F1226   1.357       .  S
C1229      C1230   1.407   1_556  A
C1229      C1234   1.402       .  A
C1229      F1247   1.358       .  S
C1230      C1235   1.483       .  S
C1231      C1232   1.399       .  A
C1231      F1236   1.358       .  S
C1232      F1248   1.358       .  S
C1233      C1234   1.407   1_554  A
C1234      F1237   1.358       .  S
C1235      C1238   1.403       .  A
C1238      C1239   1.400       .  A
C1238      F1243   1.358       .  S
C1239      C1240   1.414       .  A
C1239      F1245   1.358       .  S
C1241      C1242   1.401       .  A
C1241      F1244   1.358       .  S
C1242      F1246   1.358       .  S
C1249      C1250   1.404       .  A
C1249      C1254   1.401       .  A
C1249      F1267   1.358       .  S
C1250      C1251   1.403       .  A
C1250      C1255   1.483       .  S
C1251      C1252   1.402       .  A
C1251      F1256   1.358       .  S
C1252      C1253   1.413       .  A
C1252      F1268   1.358       .  S
C1253      C1254   1.411       .  A
C1254      F1257   1.358       .  S
C1255      C1258   1.403       .  A
C1255      C1262   1.406       .  A
C1258      C1259   1.401       .  A
C1258      F1263   1.358       .  S
C1259      C1260   1.409       .  A
C1259      F1265   1.358       .  S
C1260      C1261   1.406       .  A
C1261      C1262   1.403       .  A
C1261      F1264   1.357       .  S
C1262      F1266   1.358       .  S
C1269      C1270   1.401       .  A
C1269      C1274   1.394       .  A
C1269      F1287   1.358       .  S
C1270      C1271   1.405       .  A
C1270      C1275   1.471       .  S
C1271      C1272   1.401       .  A
C1271      F1276   1.357       .  S
C1272      C1273   1.404       .  A
C1272      F1288   1.357       .  S
C1273      C1274   1.407       .  A
C1274      F1277   1.357       .  S
C1275      C1278   1.402       .  A
C1275      C1282   1.399       .  A
C1278      C1279   1.399       .  A
C1278      F1283   1.358       .  S
C1279      C1280   1.410       .  A
C1279      F1285   1.358       .  S
C1280      C1281   1.413       .  A
C1281      C1282   1.397       .  A
C1281      F1284   1.358       .  S
C1282      F1286   1.358       .  S
C1289      C1290   1.408       .  A
C1289      C1294   1.405       .  A
C1289      F1307   1.358   1_655  S
C1290      C1295   1.484       .  S
C1291      C1292   1.395       .  A
C1291      F1296   1.358       .  S
C1292      F1308   1.358       .  S
C1293      C1294   1.408       .  A
C1294      F1297   1.358   1_655  S
C1295      C1302   1.404   1_554  A
C1298      C1299   1.402       .  A
C1298      F1303   1.358       .  S
C1299      F1305   1.358       .  S
C1300      C1301   1.413   1_554  A
C1301      C1302   1.400       .  A
C1301      F1304   1.358       .  S
C1302      F1306   1.358       .  S
C1309      C1310   1.405   1_556  A
C1309      C1314   1.401       .  A
C1310      C1311   1.408       .  A
C1310      C1315   1.489       .  S
C1311      C1312   1.404       .  A
C1311      F1316   1.358       .  S
C1312      C1313   1.406       .  A
C1312      F1328   1.355       .  S
C1313      C1314   1.407   1_554  A
C1314      F1317   1.358       .  S
C1315      C1322   1.407   1_554  A
C1318      C1319   1.400       .  A
C1318      F1323   1.358       .  S
C1319      C1320   1.415       .  A
C1319      F1325   1.358       .  S
C1321      C1322   1.406       .  A
C1321      F1324   1.358       .  S
C1322      F1326   1.358       .  S
C1329      C1330   1.404       .  A
C1329      C1334   1.401       .  A
C1329      F1347   1.358       .  S
C1330      C1331   1.403       .  A
C1330      C1335   1.483       .  S
C1331      C1332   1.399       .  A
C1331      F1336   1.358       .  S
C1332      C1333   1.413       .  A
C1332      F1348   1.358       .  S
C1333      C1334   1.413       .  A
C1334      F1337   1.358       .  S
C1335      C1338   1.407       .  A
C1335      C1342   1.405       .  A
C1338      C1339   1.403       .  A
C1338      F1343   1.358       .  S
C1339      C1340   1.407       .  A
C1339      F1345   1.357       .  S
C1340      C1341   1.406       .  A
C1341      C1342   1.398       .  A
C1341      F1344   1.357       .  S
C1342      F1346   1.358       .  S
C1349      C1350   1.408       .  A
C1349      C1354   1.400       .  A
C1349      F1367   1.358       .  S
C1350      C1351   1.403       .  A
C1350      C1355   1.479       .  S
C1351      C1352   1.393       .  A
C1351      F1356   1.358       .  S
C1352      C1353   1.406       .  A
C1352      F1368   1.359       .  S
C1353      C1354   1.404       .  A
C1354      F1357   1.357       .  S
C1355      C1358   1.404       .  A
C1355      C1362   1.404       .  A
C1358      C1359   1.397       .  A
C1358      F1363   1.358       .  S
C1359      C1360   1.412       .  A
C1359      F1365   1.358       .  S
C1360      C1361   1.410       .  A
C1361      C1362   1.397       .  A
C1361      F1364   1.358       .  S
C1362      F1366   1.358       .  S
C1369      C1374   1.397       .  A
C1369      F1387   1.358       .  S
C1370      C1371   1.409       .  A
C1370      C1375   1.482       .  S
C1371      C1372   1.402       .  A
C1371      F1376   1.358       .  S
C1372      C1373   1.404       .  A
C1372      F1388   1.356       .  S
C1374      F1377   1.358       .  S
C1375      C1382   1.405       .  A
C1378      C1379   1.401       .  A
C1378      F1383   1.358       .  S
C1379      F1385   1.357       .  S
C1380      C1381   1.413       .  A
C1381      C1382   1.403       .  A
C1381      F1384   1.357       .  S
C1382      F1386   1.358       .  S
C1389      C1394   1.404       .  A
C1389      F1407   1.358       .  S
C1390      C1391   1.408       .  A
C1390      C1395   1.498       .  S
C1391      C1392   1.407       .  A
C1391      F1396   1.358       .  S
C1392      C1393   1.413       .  A
C1392      F1408   1.357       .  S
C1394      F1397   1.358       .  S
C1395      C1402   1.412       .  A
C1398      C1399   1.398       .  A
C1398      F1403   1.358       .  S
C1399      F1405   1.358       .  S
C1400      C1401   1.410       .  A
C1401      C1402   1.411       .  A
C1401      F1404   1.358       .  S
C1402      F1406   1.358       .  S
