geometry optimzed in LAMMPS
_audit_creation_date              2020-12-01 
_audit_creation_method            'lammps2cif' 
_symmetry_space_group_name_H-M    'P1' 
_symmetry_Int_Tables_number       1 
_symmetry_cell_setting            triclinic 
loop_ 
_symmetry_equiv_pos_as_xyz 
  x,y,z 
_cell_length_a                    38.15202669 
_cell_length_b                    38.09786563907145 
_cell_length_c                    38.00793207464424 
_cell_angle_alpha                 89.96955073825538 
_cell_angle_beta                  89.962153405057 
_cell_angle_gamma                 90.0236628440328 
loop_ 
_atom_site_label 
_atom_site_type_symbol 
_atom_site_fract_x 
_atom_site_fract_y 
_atom_site_fract_z 
_atom_site_charge 
O1          O  0.45800539  0.62505540  0.02185870    -0.71000
O2          O  0.53072441  0.70040385  0.03576572    -0.72000
O3          O  0.45771557  0.70016628  0.02170599    -0.60600
O4          O  0.53141865  0.62540817  0.03592295    -0.69000
O5          O  0.54177078  0.62494847  0.97848871    -0.68600
O6          O  0.46896040  0.70038064  0.96435534    -0.59900
O7          O  0.54193341  0.70003605  0.97839428    -0.72400
O8          O  0.46842886  0.62544368  0.96441925    -0.71100
Cu9        Cu  0.49407068  0.66270560  0.03082159     1.04600
Cu10       Cu  0.50566314  0.66264799  0.96942652     1.04300
C11         C  0.45171311  0.61338891  0.99094268     0.95200
C12         C  0.54743326  0.71225759  0.00917785     0.94300
C13         C  0.45222330  0.71234187  0.99086885     0.86400
C14         C  0.54811991  0.61327975  0.00941206     0.92700
C15         C  0.84539008  0.64126884  0.95571902     0.88400
C16         C  0.81828610  0.61153483  0.95472203    -0.51800
C17         C  0.79712603  0.61066681  0.98369363     0.11300
C18         C  0.80520721  0.63933697  0.01109656     0.22300
C19         C  0.82393244  0.67489705  0.96106068    -0.52600
C20         C  0.80281053  0.67375832  0.99003661     0.11400
C21         C  0.86548394  0.63608178  0.99019625    -0.52100
C22         C  0.84456302  0.63515218  0.01923015     0.12000
H23         H  0.81561352  0.59333882  0.93288411     0.16500
H24         H  0.78798475  0.63857922  0.03468245     0.02300
H25         H  0.82483188  0.69720594  0.94326030     0.16800
H26         H  0.89386154  0.63396954  0.99159382     0.16600
C27         C  0.64706641  0.84081927  0.05150460     0.88400
C28         C  0.61687474  0.81413685  0.05114580    -0.51800
C29         C  0.61772352  0.79220407  0.02271931     0.11300
C30         C  0.64835267  0.79908308  0.99729318     0.22300
C31         C  0.68057585  0.81868095  0.04912183    -0.52600
C32         C  0.68110473  0.79675728  0.02074765     0.11400
C33         C  0.64462821  0.86003628  0.01617096    -0.52100
C34         C  0.64530126  0.83823126  0.98779414     0.12000
H35         H  0.59705865  0.81241778  0.07161428     0.16500
H36         H  0.64893881  0.78122336  0.97418271     0.02300
H37         H  0.70160626  0.81979232  0.06835260     0.16800
H38         H  0.64272423  0.88840492  0.01378847     0.16600
O39         O  0.62949077  0.53361628  0.02326030    -0.71000
O40         O  0.70480249  0.45930871  0.03219840    -0.72000
O41         O  0.70441068  0.53315781  0.02283264    -0.60600
O42         O  0.63004413  0.45935386  0.03318970    -0.69000
O43         O  0.62900450  0.45160871  0.97532994    -0.68600
O44         O  0.70440196  0.52534518  0.96490426    -0.59900
O45         O  0.70398085  0.45141954  0.97430658    -0.72400
O46         O  0.62960854  0.52589280  0.96540538    -0.71100
Cu47       Cu  0.66712949  0.49661061  0.02987879     1.04600
Cu48       Cu  0.66664470  0.48830203  0.96795400     1.04300
C49         C  0.61785797  0.54155725  0.99268769     0.95200
C50         C  0.71644738  0.44409200  0.00459710     0.94300
C51         C  0.71642988  0.54046700  0.99236920     0.86400
C52         C  0.61782306  0.44378403  0.00610858     0.92700
C53         C  0.64688252  0.14480870  0.94747129     0.88400
C54         C  0.61696599  0.17174300  0.94858367    -0.51800
C55         C  0.61858594  0.19361780  0.97701349     0.11300
C56         C  0.64969107  0.18637090  0.00176311     0.22300
C57         C  0.68065544  0.16665585  0.94914036    -0.52600
C58         C  0.68199690  0.18847110  0.97758937     0.11400
C59         C  0.64503502  0.12551082  0.98281255    -0.52100
C60         C  0.64651122  0.14718820  0.01125898     0.12000
H61         H  0.59673966  0.17366132  0.92856814     0.16500
H62         H  0.65092931  0.20415697  0.02490099     0.02300
H63         H  0.70130785  0.16534285  0.92948768     0.16800
H64         H  0.64290870  0.09715179  0.98514205     0.16600
C65         C  0.84605517  0.34468453  0.04338531     0.88400
C66         C  0.81871659  0.37428024  0.04348176    -0.51800
C67         C  0.79760765  0.37422736  0.01443096     0.11300
C68         C  0.80602155  0.34485189  0.98787777     0.22300
C69         C  0.82479183  0.31075602  0.03888791    -0.52600
C70         C  0.80378560  0.31097770  0.00981031     0.11400
C71         C  0.86619822  0.34905414  0.00879756    -0.52100
C72         C  0.84536464  0.34904897  0.97972471     0.12000
H73         H  0.81588575  0.39306584  0.06478828     0.16500
H74         H  0.78891704  0.34482836  0.96421652     0.02300
H75         H  0.82587264  0.28886334  0.05718592     0.16800
H76         H  0.89457017  0.35128845  0.00736839     0.13000
O77         O  0.45825776  0.36042870  0.97876831    -0.71000
O78         O  0.53113987  0.28505193  0.96467857    -0.72000
O79         O  0.45816639  0.28538282  0.97927294    -0.60600
O80         O  0.53142314  0.35994822  0.96401968    -0.69000
O81         O  0.54206659  0.36082314  0.02140197    -0.68600
O82         O  0.46980800  0.28534016  0.03654741    -0.59900
O83         O  0.54274664  0.28584266  0.02194131    -0.72400
O84         O  0.46889170  0.36022253  0.03614746    -0.71100
Cu85       Cu  0.49433641  0.32271880  0.96968526     1.04600
Cu86       Cu  0.50628866  0.32310621  0.03100350     1.04300
C87         C  0.45208689  0.37223296  0.00967479     0.95200
C88         C  0.54816295  0.27348820  0.99118483     0.94300
C89         C  0.45283982  0.27340461  0.01020088     0.86400
C90         C  0.54817074  0.37228301  0.99034966     0.92700
C91         C  0.15502542  0.34486817  0.95479968     0.88400
C92         C  0.18255908  0.37421317  0.95391763    -0.51800
C93         C  0.20352464  0.37473126  0.98301312     0.11300
C94         C  0.19488177  0.34618447  0.01035735     0.22300
C95         C  0.17597001  0.31092216  0.96025922    -0.52600
C96         C  0.19692390  0.31174834  0.98934075     0.11400
C97         C  0.13479724  0.35035125  0.98918499    -0.52100
C98         C  0.15557945  0.35099492  0.01829919     0.12000
H99         H  0.18559476  0.39243719  0.93212774     0.16500
H100        H  0.21196734  0.34670255  0.03402752     0.02300
H101        H  0.17487939  0.28864479  0.94245552     0.16800
H102        H  0.10645583  0.35298187  0.99045301     0.16600
C103        C  0.35278872  0.14537746  0.05331055     0.88400
C104        C  0.38277187  0.17227260  0.05305409    -0.51800
C105        C  0.38185770  0.19426551  0.02467245     0.11300
C106        C  0.35132925  0.18728800  0.99919902     0.22300
C107        C  0.31908905  0.16727138  0.05094070    -0.52600
C108        C  0.31847767  0.18928205  0.02258450     0.11400
C109        C  0.35544948  0.12631737  0.01792025    -0.52100
C110        C  0.35466289  0.14821135  0.98960034     0.12000
H111        H  0.40261658  0.17396534  0.07347062     0.16500
H112        H  0.35068526  0.20520929  0.97611934     0.02300
H113        H  0.29796580  0.16585217  0.07007476     0.16800
H114        H  0.35748999  0.09796756  0.01545662     0.16600
C115        C  0.15453458  0.64104623  0.04496771     0.88400
C116        C  0.18181940  0.61140695  0.04548535    -0.51800
C117        C  0.20279025  0.61090683  0.01631827     0.11300
C118        C  0.19440865  0.63984496  0.98930104     0.22300
C119        C  0.17584144  0.67485423  0.03975093    -0.52600
C120        C  0.19680587  0.67409228  0.01061881     0.11400
C121        C  0.13428867  0.63607891  0.01055538    -0.52100
C122        C  0.15505283  0.63548820  0.98141244     0.12000
H123        H  0.18461622  0.59290560  0.06706081     0.16500
H124        H  0.21144501  0.63939008  0.96557150     0.02300
H125        H  0.17491957  0.69701559  0.05770705     0.16800
H126        H  0.10592331  0.63369070  0.00929483     0.16600
C127        C  0.35276593  0.84135603  0.94799548     0.88400
C128        C  0.38300508  0.81467352  0.94842873    -0.51800
C129        C  0.38200160  0.79250723  0.97673914     0.11300
C130        C  0.35118762  0.79921518  0.00198507     0.22300
C131        C  0.31925165  0.81910898  0.95006615    -0.52600
C132        C  0.31856406  0.79698232  0.97832915     0.11400
C133        C  0.35495695  0.86029943  0.98347627    -0.52100
C134        C  0.35415246  0.83830743  0.01172505     0.12000
H135        H  0.40296809  0.81314379  0.92809669     0.16500
H136        H  0.35046350  0.78122400  0.02500847     0.02300
H137        H  0.29829362  0.82037519  0.93076792     0.16800
H138        H  0.35684369  0.88865265  0.98604724     0.16600
O139        O  0.37081630  0.53420081  0.97638300    -0.71000
O140        O  0.29622081  0.45995011  0.96553988    -0.72000
O141        O  0.29590052  0.53368821  0.97557369    -0.60600
O142        O  0.37090952  0.45999876  0.96600603    -0.69000
O143        O  0.37114833  0.45196962  0.02383190    -0.68600
O144        O  0.29506652  0.52518266  0.03339602    -0.59900
O145        O  0.29629873  0.45149050  0.02339389    -0.72400
O146        O  0.36977887  0.52622510  0.03421776    -0.71100
Cu147      Cu  0.33356504  0.49723841  0.96885133     1.04600
Cu148      Cu  0.33313980  0.48844336  0.03072687     1.04300
C149        C  0.38187126  0.54204209  0.00717308     0.95200
C150        C  0.28433817  0.44444115  0.99286180     0.94300
C151        C  0.28335977  0.54058913  0.00594376     0.86400
C152        C  0.38276787  0.44425844  0.99319559     0.92700
O153        O  0.53959558  0.01831340  0.63236805    -0.71000
O154        O  0.46596502  0.02953887  0.70722673    -0.72000
O155        O  0.53915543  0.01709036  0.70749467    -0.60600
O156        O  0.46616194  0.03043603  0.63214647    -0.69000
O157        O  0.45736636  0.97285635  0.63120869    -0.68600
O158        O  0.52926961  0.95959994  0.70683996    -0.59900
O159        O  0.45611473  0.97206220  0.70629556    -0.72400
O160        O  0.53067920  0.96075985  0.63180289    -0.71100
Cu161      Cu  0.50306262  0.02585961  0.66981023     1.04600
Cu162      Cu  0.49300426  0.96431638  0.66897797     1.04300
C163        C  0.54670076  0.98786481  0.62016051     0.95200
C164        C  0.44977599  0.00255185  0.71874819     0.94300
C165        C  0.54524237  0.98627571  0.71924743     0.86400
C166        C  0.45049408  0.00357699  0.61958682     0.92700
C167        C  0.84605107  0.03121101  0.64781857     0.88400
C168        C  0.81885762  0.03113515  0.61808613    -0.51800
C169        C  0.79786428  0.00207805  0.61818573     0.11300
C170        C  0.80623798  0.97565482  0.64764241     0.22300
C171        C  0.82464023  0.02672205  0.68171116    -0.52600
C172        C  0.80367747  0.99768172  0.68144713     0.11400
C173        C  0.86637764  0.99683366  0.64359037    -0.52100
C174        C  0.84564617  0.96771954  0.64354285     0.12000
H175        H  0.81578631  0.05250449  0.59939922     0.16500
H176        H  0.78915536  0.95201496  0.64763377     0.02300
H177        H  0.82520715  0.04527996  0.70340149     0.16800
H178        H  0.89474916  0.99558462  0.64127267     0.16600
C179        C  0.64427100  0.94101722  0.84711969     0.88400
C180        C  0.61380364  0.94252167  0.82077334    -0.51800
C181        C  0.61542077  0.97090614  0.79883608     0.11300
C182        C  0.64697870  0.99513069  0.80531455     0.22300
C183        C  0.67758259  0.94226026  0.82448339    -0.52600
C184        C  0.67884833  0.97061429  0.80255256     0.11400
C185        C  0.64330887  0.97630760  0.86642121    -0.52100
C186        C  0.64470429  0.00461198  0.84456071     0.12000
H187        H  0.59324206  0.92284338  0.81928524     0.16500
H188        H  0.64815299  0.01820157  0.78743140     0.02300
H189        H  0.69801123  0.92242037  0.82540142     0.16800
H190        H  0.64176468  0.97870863  0.89487510     0.16600
O191        O  0.70595880  0.02919057  0.53785344    -0.71000
O192        O  0.63173170  0.03487564  0.46302073    -0.72000
O193        O  0.63150330  0.03552305  0.53789033    -0.60600
O194        O  0.70633971  0.02819435  0.46343289    -0.69000
O195        O  0.70139636  0.97009470  0.46470708    -0.68600
O196        O  0.62617310  0.97752154  0.53871268    -0.59900
O197        O  0.62694180  0.97683325  0.46358471    -0.72400
O198        O  0.70085149  0.97110234  0.53917596    -0.71100
Cu199      Cu  0.66897163  0.03396676  0.50053417     1.04600
Cu200      Cu  0.66356227  0.97185456  0.50156842     1.04300
C201        C  0.71544967  0.99935224  0.54978795     0.95200
C202        C  0.61775068  0.00674724  0.45132984     0.94300
C203        C  0.61711427  0.00777043  0.55010268     0.86400
C204        C  0.71598637  0.99786878  0.45289270     0.92700
C205        C  0.15447001  0.95274272  0.64610174     0.88400
C206        C  0.18257747  0.95197660  0.61726230    -0.51800
C207        C  0.20361271  0.98096293  0.61718632     0.11300
C208        C  0.19445779  0.00817557  0.64569619     0.22300
C209        C  0.17473966  0.95809585  0.68057390    -0.52600
C210        C  0.19574995  0.98713019  0.68023468     0.11400
C211        C  0.13441922  0.98705794  0.64029565    -0.52100
C212        C  0.15525586  0.01609587  0.64015119     0.12000
H213        H  0.18591152  0.93030613  0.59899038     0.16500
H214        H  0.21157208  0.03179256  0.64555560     0.02300
H215        H  0.17314299  0.94028744  0.70285385     0.16800
H216        H  0.10613080  0.98834710  0.63716107     0.16600
C217        C  0.35233858  0.04611746  0.84845072     0.88400
C218        C  0.38217100  0.04456807  0.82133935    -0.51800
C219        C  0.37981617  0.01643632  0.79917004     0.11300
C220        C  0.34816770  0.99241331  0.80628626     0.22300
C221        C  0.31849212  0.04541380  0.82661684    -0.52600
C222        C  0.31645059  0.01728179  0.80446625     0.11400
C223        C  0.35340483  0.01064693  0.86744266    -0.52100
C224        C  0.35124049  0.98252017  0.84544746     0.12000
H225        H  0.40286945  0.06407952  0.81952487     0.16500
H226        H  0.34637609  0.96952899  0.78824677     0.02300
H227        H  0.29834822  0.06550870  0.82811657     0.16800
H228        H  0.35564712  0.00799916  0.89582901     0.16600
O229        O  0.37201524  0.01466511  0.53774195    -0.71000
O230        O  0.29690615  0.02176129  0.46383935    -0.72000
O231        O  0.29747133  0.01668343  0.53808119    -0.60600
O232        O  0.37151012  0.01998183  0.46315879    -0.69000
O233        O  0.37068952  0.96191867  0.45838728    -0.68600
O234        O  0.29591988  0.95854572  0.53361124    -0.59900
O235        O  0.29571835  0.96362044  0.45922877    -0.72400
O236        O  0.37050108  0.95659505  0.53311821    -0.71100
Cu237      Cu  0.33460562  0.02029029  0.50080589     1.04600
Cu238      Cu  0.33321906  0.95811281  0.49592580     1.04300
C239        C  0.38288955  0.98436138  0.54722644     0.95200
C240        C  0.28420749  0.99380807  0.45039300     0.94300
C241        C  0.28479309  0.98708137  0.54729008     0.86400
C242        C  0.38288903  0.99178637  0.44903303     0.92700
C243        C  0.35437117  0.94069473  0.15255533     0.88400
C244        C  0.38399375  0.94215527  0.17986318    -0.51800
C245        C  0.38175373  0.97051668  0.20176843     0.11300
C246        C  0.35038391  0.99470101  0.19435641     0.22300
C247        C  0.32036347  0.94187017  0.17411837    -0.52600
C248        C  0.31843347  0.97015273  0.19605065     0.11400
C249        C  0.35597150  0.97604591  0.13335777    -0.52100
C250        C  0.35386952  0.00428837  0.15521935     0.12000
H251        H  0.40456271  0.92254718  0.18187790     0.16500
H252        H  0.34864849  0.01772477  0.21222785     0.02300
H253        H  0.29998401  0.92200376  0.17255343     0.16800
H254        H  0.35836369  0.97853059  0.10496748     0.16600
C255        C  0.15538127  0.03548466  0.35258947     0.88400
C256        C  0.18283290  0.03440102  0.38202915    -0.51800
C257        C  0.20273958  0.00462793  0.38164173     0.11300
C258        C  0.19320826  0.97862613  0.35218416     0.22300
C259        C  0.17620812  0.03038328  0.31843088    -0.52600
C260        C  0.19607867  0.00060896  0.31836723     0.11400
C261        C  0.13391163  0.00179598  0.35697037    -0.52100
C262        C  0.15364299  0.97201977  0.35668756     0.12000
H263        H  0.18667597  0.05546634  0.40089849     0.16500
H264        H  0.20943488  0.95440182  0.35195406     0.02300
H265        H  0.17584446  0.04889270  0.29667513     0.16800
H266        H  0.10553128  0.00147262  0.35949558     0.16600
C267        C  0.64674168  0.04431102  0.15243622     0.88400
C268        C  0.61664647  0.04188144  0.17934269    -0.51800
C269        C  0.61928234  0.01339740  0.20116838     0.11300
C270        C  0.65140662  0.99014070  0.19403920     0.22300
C271        C  0.68039834  0.04384646  0.17454049    -0.52600
C272        C  0.68268475  0.01549108  0.19637229     0.11400
C273        C  0.64635357  0.00904549  0.13307636    -0.52100
C274        C  0.64873642  0.98073159  0.15481746     0.12000
H275        H  0.59549739  0.06087818  0.18109050     0.16500
H276        H  0.65344736  0.96702660  0.21178364     0.02300
H277        H  0.70029851  0.06422501  0.17338566     0.16800
H278        H  0.64427808  0.00666040  0.10465593     0.16600
C279        C  0.84459356  0.95314461  0.35539356     0.88400
C280        C  0.81712900  0.95494860  0.38490242    -0.51800
C281        C  0.79721803  0.98475289  0.38387864     0.11300
C282        C  0.80673487  0.01002413  0.35375278     0.22300
C283        C  0.82370090  0.95752887  0.32117895    -0.52600
C284        C  0.80383217  0.98730595  0.32045620     0.11400
C285        C  0.86604294  0.98695660  0.35892376    -0.52100
C286        C  0.84628824  0.01671908  0.35802468     0.12000
H287        H  0.81335889  0.93436775  0.40433658     0.16500
H288        H  0.79053637  0.03425771  0.35298592     0.02300
H289        H  0.82409554  0.93859134  0.29981751     0.16800
H290        H  0.89441762  0.98735412  0.36145118     0.16600
O291        O  0.54213711  0.95352481  0.36440812    -0.71000
O292        O  0.46797529  0.95264011  0.29008105    -0.72000
O293        O  0.54176495  0.96173791  0.28959178    -0.60600
O294        O  0.46793258  0.94558157  0.36463605    -0.69000
O295        O  0.46230845  0.00327473  0.37001173    -0.68600
O296        O  0.53507882  0.01933181  0.29572835    -0.59900
O297        O  0.46122928  0.01031772  0.29549611    -0.72400
O298        O  0.53652326  0.01117967  0.37052773    -0.71100
Cu299      Cu  0.50523989  0.95136115  0.32701039     1.04600
Cu300      Cu  0.49858788  0.01303626  0.33319689     1.04300
C301        C  0.55099243  0.98215516  0.37936435     0.95200
C302        C  0.45308486  0.98116913  0.28097506     0.94300
C303        C  0.54949509  0.99317751  0.28062091     0.86400
C304        C  0.45337215  0.97221545  0.37900856     0.92700
O305        O  0.97116848  0.52797164  0.63131802    -0.71000
O306        O  0.97408657  0.45444721  0.70601170    -0.72000
O307        O  0.97059047  0.52859969  0.70650676    -0.60600
O308        O  0.97647629  0.45349390  0.63097199    -0.69000
O309        O  0.03448754  0.45744468  0.63282630    -0.68600
O310        O  0.02874200  0.53178555  0.70656182    -0.59900
O311        O  0.03221206  0.45758305  0.70789602    -0.72400
O312        O  0.02920221  0.53198890  0.63125586    -0.71100
Cu313      Cu  0.97105665  0.49102878  0.66859416     1.04600
Cu314      Cu  0.03320210  0.49483637  0.66960720     1.04300
C315        C  0.99927481  0.54152727  0.61927466     0.95200
C316        C  0.00325113  0.44480692  0.71911464     0.94300
C317        C  0.99912587  0.54140897  0.71867441     0.86400
C318        C  0.00676876  0.44370408  0.62016368     0.92700
C319        C  0.95820318  0.83603762  0.64356295     0.88400
C320        C  0.96278439  0.80871509  0.61420525    -0.51800
C321        C  0.99305530  0.78972421  0.61713287     0.11300
C322        C  0.01592676  0.79988046  0.64882549     0.22300
C323        C  0.96098561  0.81509061  0.67796169    -0.52600
C324        C  0.99120593  0.79609589  0.68056027     0.11400
C325        C  0.99145528  0.85854697  0.64222011    -0.52100
C326        C  0.02163597  0.83967487  0.64499903     0.12000
H327        H  0.94367312  0.80437183  0.59348231     0.16500
H328        H  0.04051731  0.78440842  0.65111418     0.02300
H329        H  0.94067469  0.81472160  0.69801030     0.16800
H330        H  0.99116019  0.88695478  0.63956795     0.16600
C331        C  0.04488747  0.63626390  0.84698583     0.88400
C332        C  0.03995699  0.60629217  0.82040849    -0.51800
C333        C  0.01081888  0.61015697  0.79982496     0.11300
C334        C  0.98931004  0.64331338  0.80782123     0.22300
C335        C  0.04498887  0.66991671  0.82476294    -0.52600
C336        C  0.01587223  0.67346698  0.80423084     0.11400
C337        C  0.01060137  0.63753090  0.86795033    -0.52100
C338        C  0.98154050  0.64119531  0.84746915     0.12000
H339        H  0.05812971  0.58452335  0.81762186     0.16500
H340        H  0.96563164  0.64635967  0.79107021     0.02300
H341        H  0.06626839  0.68887938  0.82487547     0.16800
H342        H  0.00939609  0.63566116  0.89646302     0.16600
O343        O  0.03446760  0.70025734  0.46100592    -0.71000
O344        O  0.04567168  0.62555423  0.53467410    -0.72000
O345        O  0.04072282  0.62559006  0.45988260    -0.60600
O346        O  0.03834292  0.70018172  0.53539078    -0.69000
O347        O  0.98045865  0.69433821  0.53822101    -0.68600
O348        O  0.98283078  0.62074048  0.46280858    -0.59900
O349        O  0.98787095  0.61988763  0.53769102    -0.72400
O350        O  0.97649162  0.69550916  0.46384705    -0.71100
Cu351      Cu  0.04182777  0.66300665  0.49759038     1.04600
Cu352      Cu  0.97990097  0.65734480  0.50076131     1.04300
C353        C  0.00399707  0.71005405  0.45130622     0.95200
C354        C  0.01859337  0.61099623  0.54796272     0.94300
C355        C  0.01212966  0.61146216  0.44945508     0.86400
C356        C  0.00870297  0.70921203  0.54819851     0.92700
C357        C  0.95455392  0.63720176  0.15402629     0.88400
C358        C  0.95862333  0.60752361  0.18105697    -0.51800
C359        C  0.98780226  0.61087649  0.20164083     0.11300
C360        C  0.01028088  0.64333234  0.19318436     0.22300
C361        C  0.95534471  0.67116196  0.17576448    -0.52600
C362        C  0.98453254  0.67424219  0.19631435     0.11400
C363        C  0.98890298  0.63726903  0.13310958    -0.52100
C364        C  0.01806425  0.64049629  0.15353652     0.12000
H365        H  0.93983550  0.58630427  0.18415271     0.16500
H366        H  0.03399965  0.64597032  0.20994453     0.02300
H367        H  0.93454511  0.69062871  0.17538843     0.16800
H368        H  0.99006194  0.63508509  0.10462082     0.16600
C369        C  0.04041165  0.83989750  0.35525980     0.88400
C370        C  0.03760608  0.81278572  0.38499444    -0.51800
C371        C  0.00833219  0.79223514  0.38283095     0.11300
C372        C  0.98442494  0.80089805  0.35139008     0.22300
C373        C  0.03813740  0.81842954  0.32116969    -0.52600
C374        C  0.00883013  0.79793826  0.31926620     0.11400
C375        C  0.00618234  0.86080432  0.35682821    -0.52100
C376        C  0.97686240  0.84048579  0.35478697     0.12000
H377        H  0.05737250  0.80950278  0.40529771     0.16500
H378        H  0.96059768  0.78419006  0.34970375     0.02300
H379        H  0.05814100  0.81883703  0.30081259     0.16800
H380        H  0.00520586  0.88922326  0.35915134     0.16600
O381        O  0.01596107  0.52900010  0.37169667    -0.71000
O382        O  0.02173101  0.45505069  0.29701335    -0.72000
O383        O  0.02325496  0.52939246  0.29701521    -0.60600
O384        O  0.01306706  0.45420628  0.37167519    -0.69000
O385        O  0.95530318  0.45567945  0.36507449    -0.68600
O386        O  0.96525687  0.53058055  0.29186666    -0.59900
O387        O  0.96389483  0.45633017  0.29035126    -0.72400
O388        O  0.95805692  0.53039345  0.36652412    -0.71100
Cu389      Cu  0.02052148  0.49181909  0.33465789     1.04600
Cu390      Cu  0.95860571  0.49328823  0.32831509     1.04300
C391        C  0.98628973  0.54152630  0.38087635     0.95200
C392        C  0.99402950  0.44460235  0.28145864     0.94300
C393        C  0.99548956  0.54138137  0.28251890     0.86400
C394        C  0.98245386  0.44311438  0.38003487     0.92700
C395        C  0.04253309  0.14710414  0.64131878     0.88400
C396        C  0.03643032  0.17367735  0.61154731    -0.51800
C397        C  0.00636538  0.19277745  0.61562711     0.11300
C398        C  0.98517378  0.18344141  0.64870723     0.22300
C399        C  0.04155176  0.16892151  0.67525227    -0.52600
C400        C  0.01150714  0.18801045  0.67894653     0.11400
C401        C  0.00926625  0.12459103  0.64234187    -0.52100
C402        C  0.97926882  0.14358936  0.64618062     0.12000
H403        H  0.05456817  0.17766622  0.58986175     0.16500
H404        H  0.96074713  0.19902153  0.65187944     0.02300
H405        H  0.06287617  0.16978143  0.69416606     0.16800
H406        H  0.00940546  0.09614419  0.64017615     0.16600
C407        C  0.95578144  0.34680143  0.84518252     0.88400
C408        C  0.96024989  0.37729622  0.81906597    -0.51800
C409        C  0.98976321  0.37452192  0.79881071     0.11300
C410        C  0.01200936  0.34182818  0.80655908     0.22300
C411        C  0.95685854  0.31348437  0.82249785    -0.52600
C412        C  0.98632691  0.31103710  0.80224736     0.11400
C413        C  0.98985190  0.34614133  0.86650106    -0.52100
C414        C  0.01923536  0.34357531  0.84628427     0.12000
H415        H  0.94162083  0.39869546  0.81645332     0.16500
H416        H  0.03597667  0.33968003  0.79005213     0.02300
H417        H  0.93611837  0.29393671  0.82213588     0.16800
H418        H  0.99068373  0.34766776  0.89504419     0.16600
C419        C  0.95935837  0.14866514  0.35548566     0.88400
C420        C  0.96382985  0.17495548  0.38574679    -0.51800
C421        C  0.99344756  0.19494510  0.38284741     0.11300
C422        C  0.01584032  0.18676112  0.35026275     0.22300
C423        C  0.96071580  0.17092844  0.32184477    -0.52600
C424        C  0.99032273  0.19088978  0.31924358     0.11400
C425        C  0.99326497  0.12714713  0.35519705    -0.52100
C426        C  0.02279204  0.14709048  0.35250223     0.12000
H427        H  0.94505280  0.17796877  0.40703474     0.16500
H428        H  0.03990889  0.20306547  0.34801604     0.02300
H429        H  0.94005651  0.17122143  0.30218477     0.16800
H430        H  0.99388843  0.09868242  0.35704062     0.16600
C431        C  0.04602197  0.35056625  0.15328488     0.88400
C432        C  0.04101531  0.38038221  0.18005318    -0.51800
C433        C  0.01154696  0.37660552  0.20022631     0.11300
C434        C  0.98980995  0.34372553  0.19164300     0.22300
C435        C  0.04548044  0.31674046  0.17527371    -0.52600
C436        C  0.01601624  0.31332016  0.19539362     0.11400
C437        C  0.01200408  0.34975629  0.13187146    -0.52100
C438        C  0.98259715  0.34618918  0.15190366     0.12000
H439        H  0.05933374  0.40198508  0.18322885     0.16500
H440        H  0.96586451  0.34076858  0.20805929     0.02300
H441        H  0.06660430  0.29762186  0.17536341     0.16800
H442        H  0.01123727  0.35179240  0.10335674     0.16600
O443        O  0.02847160  0.36240184  0.46655349    -0.71000
O444        O  0.02251146  0.28834691  0.54057439    -0.72000
O445        O  0.03008852  0.28760354  0.46671994    -0.60600
O446        O  0.01931678  0.36306499  0.54082650    -0.69000
O447        O  0.96153515  0.36068893  0.53462110    -0.68600
O448        O  0.97216316  0.28689020  0.46060663    -0.59900
O449        O  0.96463720  0.28568155  0.53451893    -0.72400
O450        O  0.97066281  0.36174802  0.46008130    -0.71100
Cu451      Cu  0.02709638  0.32552026  0.50391429     1.04600
Cu452      Cu  0.96520064  0.32377765  0.49723774     1.04300
C453        C  0.00086013  0.37383233  0.45156150     0.95200
C454        C  0.99305897  0.27476348  0.54860254     0.94300
C455        C  0.00238083  0.27516952  0.45249242     0.86400
C456        C  0.98859623  0.37360803  0.54944872     0.92700
C457        C  0.00446789  0.24701425  0.42748575    -0.11400
C458        C  0.00137208  0.22298066  0.40706952    -0.12900
C459        C  0.01084966  0.28466627  0.21965934    -0.16600
C460        C  0.00639911  0.26177696  0.24113418     0.07500
C461        C  0.00103859  0.23607086  0.26739316     0.09300
C462        C  0.99629465  0.21499693  0.29060011    -0.17400
C463        C  0.99273493  0.24599620  0.57302942    -0.11400
C464        C  0.99718799  0.22137701  0.59250079    -0.12900
C465        C  0.99204427  0.28277240  0.77768921    -0.16600
C466        C  0.99660744  0.25986314  0.75628993     0.07500
C467        C  0.00174297  0.23379985  0.73037664     0.09300
C468        C  0.00610423  0.21233543  0.70748428    -0.17400
C469        C  0.00491124  0.40121510  0.42428606    -0.14500
C470        C  0.97773723  0.41560787  0.40714789    -0.29700
H471        H  0.03139065  0.40985724  0.41822366     0.14500
H472        H  0.95120680  0.40710994  0.41318052     0.15100
C473        C  0.00289792  0.40024352  0.22868471    -0.11400
C474        C  0.99735707  0.41997286  0.25294338    -0.12900
C475        C  0.99766876  0.56685237  0.25466773    -0.11400
C476        C  0.99508000  0.58721279  0.23044330    -0.12900
C477        C  0.00272680  0.77376056  0.29067888    -0.16600
C478        C  0.99837549  0.75240962  0.26763823     0.07500
C479        C  0.99369859  0.72626058  0.24165738     0.09300
C480        C  0.98968273  0.70305983  0.22042197    -0.17400
C481        C  0.01343758  0.58406452  0.42190521    -0.14500
C482        C  0.98443511  0.56909815  0.40826628    -0.29700
H483        H  0.03913474  0.57606674  0.41254202     0.14500
H484        H  0.95868073  0.57744812  0.41714096     0.15100
C485        C  0.00112235  0.73843595  0.42646172    -0.11400
C486        C  0.00249052  0.76302759  0.40641579    -0.12900
C487        C  0.00159417  0.76123123  0.59357790    -0.11400
C488        C  0.00653265  0.73718631  0.57348973    -0.12900
C489        C  0.01133447  0.70218177  0.77992897    -0.16600
C490        C  0.00755374  0.72532087  0.75860527     0.07500
C491        C  0.00275783  0.75134401  0.73256234     0.09300
C492        C  0.99798450  0.77246405  0.70941237    -0.17400
C493        C  0.01085585  0.41636087  0.59289164    -0.14500
C494        C  0.98368453  0.40087588  0.57673396    -0.29700
H495        H  0.03742263  0.40888877  0.58577543     0.14500
H496        H  0.95706779  0.40842277  0.58356115     0.15100
C497        C  0.99591307  0.56833185  0.59131710    -0.14500
C498        C  0.02332856  0.58391114  0.57556571    -0.29700
H499        H  0.96948083  0.57544731  0.58339877     0.14500
H500        H  0.04985294  0.57693543  0.58327079     0.15100
C501        C  0.99864194  0.56637505  0.74705470    -0.11400
C502        C  0.00259235  0.58640771  0.77135992    -0.12900
C503        C  0.00272305  0.41966569  0.74734132    -0.11400
C504        C  0.99813167  0.39914543  0.77113221    -0.12900
C505        C  0.86674699  0.92150109  0.35607090    -0.16600
C506        C  0.88791733  0.89791155  0.35602844     0.07500
C507        C  0.91585572  0.87345047  0.35563355     0.09300
C508        C  0.94229643  0.85600930  0.35523284    -0.17400
C509        C  0.86230583  0.05104272  0.35948581    -0.16600
C510        C  0.87986837  0.07740966  0.35991870     0.07500
C511        C  0.90435112  0.10530862  0.35948030     0.09300
C512        C  0.92790788  0.12645886  0.35821875    -0.17400
C513        C  0.59454482  0.00596184  0.22908043    -0.11400
C514        C  0.57431131  0.99951667  0.25272557    -0.12900
C515        C  0.71119762  0.01067131  0.22079394    -0.16600
C516        C  0.73406061  0.00649917  0.24229031     0.07500
C517        C  0.75966055  0.00100729  0.26856054     0.09300
C518        C  0.78043090  0.99539608  0.29179712    -0.17400
C519        C  0.13332654  0.06706143  0.35268912    -0.16600
C520        C  0.11203870  0.09045043  0.35249836     0.07500
C521        C  0.08380074  0.11438969  0.35219073     0.09300
C522        C  0.05716596  0.13140725  0.35211451    -0.17400
C523        C  0.07162199  0.86252480  0.35738184    -0.16600
C524        C  0.09513087  0.88374045  0.35855897     0.07500
C525        C  0.11975487  0.91152459  0.35906723     0.09300
C526        C  0.13751380  0.93776378  0.35856633    -0.17400
C527        C  0.42713324  0.98006289  0.25362254    -0.11400
C528        C  0.40624593  0.97655358  0.23005204    -0.12900
C529        C  0.21966008  0.99205792  0.29000356    -0.16600
C530        C  0.24065889  0.98609758  0.26706067     0.07500
C531        C  0.26654519  0.98016641  0.24117434     0.09300
C532        C  0.28965151  0.97556064  0.22002546    -0.17400
C533        C  0.41035707  0.99478874  0.42178257    -0.14500
C534        C  0.42589100  0.96714938  0.40614138    -0.29700
H535        H  0.41827429  0.02123385  0.41454917     0.14500
H536        H  0.41837617  0.94057692  0.41329767     0.15100
C537        C  0.25600510  0.99638888  0.42551592    -0.11400
C538        C  0.23168575  0.99941139  0.40547133    -0.12900
C539        C  0.07450662  0.12581647  0.63749389    -0.16600
C540        C  0.09841468  0.10509044  0.63590986     0.07500
C541        C  0.12306983  0.07733853  0.63577915     0.09300
C542        C  0.14036937  0.05082612  0.63705758    -0.17400
C543        C  0.05548029  0.85662503  0.64509754    -0.16600
C544        C  0.08163181  0.87445869  0.64537730     0.07500
C545        C  0.10964701  0.89876643  0.64584914     0.09300
C546        C  0.13126326  0.92191433  0.64616796    -0.17400
C547        C  0.25703364  0.98594877  0.57286205    -0.11400
C548        C  0.23287492  0.98448687  0.59333968    -0.12900
C549        C  0.21891570  0.99581134  0.70896673    -0.16600
C550        C  0.23955636  0.00192598  0.73222616     0.07500
C551        C  0.26507262  0.00793055  0.75852430     0.09300
C552        C  0.28789822  0.01236707  0.78004499    -0.17400
C553        C  0.59077763  0.00926221  0.42344346    -0.14500
C554        C  0.57799181  0.98066860  0.40721348    -0.29700
H555        H  0.58162037  0.03518106  0.41583005     0.14500
H556        H  0.58777850  0.95487421  0.41447937     0.15100
C557        C  0.74421243  0.99475305  0.42795634    -0.11400
C558        C  0.76844400  0.99084689  0.40785974    -0.12900
C559        C  0.92610631  0.85737327  0.64093292    -0.16600
C560        C  0.90235235  0.87834772  0.64003445     0.07500
C561        C  0.87794499  0.90636835  0.64021420     0.09300
C562        C  0.86071193  0.93296275  0.64127133    -0.17400
C563        C  0.76838514  0.99847141  0.59463241    -0.11400
C564        C  0.74369576  0.99773484  0.57477839    -0.12900
C565        C  0.86914703  0.06211812  0.64798797    -0.16600
C566        C  0.89081895  0.08521076  0.64811148     0.07500
C567        C  0.91903079  0.10928211  0.64799266     0.09300
C568        C  0.94535536  0.12684438  0.64746748    -0.17400
C569        C  0.70704300  0.97617715  0.77788980    -0.16600
C570        C  0.73019200  0.98047091  0.75670144     0.07500
C571        C  0.75679111  0.98550463  0.73132775     0.09300
C572        C  0.77878883  0.99040600  0.70906467    -0.17400
C573        C  0.57353946  0.98365652  0.59231885    -0.14500
C574        C  0.59001131  0.01133587  0.57772345    -0.29700
H575        H  0.57972986  0.95722735  0.58355992     0.14500
H576        H  0.58357303  0.03773381  0.58640357     0.15100
C577        C  0.42429856  0.00826659  0.59137811    -0.14500
C578        C  0.40966533  0.98066635  0.57494447    -0.29700
H579        H  0.41710367  0.03483451  0.58388576     0.14500
H580        H  0.41732271  0.95416715  0.58223799     0.15100
C581        C  0.57007638  0.98146733  0.74719684    -0.11400
C582        C  0.59052333  0.97680442  0.77092905    -0.12900
C583        C  0.42454413  0.00659917  0.74661499    -0.11400
C584        C  0.40414193  0.01072612  0.77057911    -0.12900
C585        C  0.35336667  0.86605264  0.91812124    -0.16600
C586        C  0.35311690  0.88925286  0.89639090     0.07500
C587        C  0.35240389  0.91924259  0.87431465     0.09300
C588        C  0.35176869  0.94698708  0.85887617    -0.17400
C589        C  0.35553659  0.85165598  0.04727954    -0.16600
C590        C  0.35641185  0.86697086  0.07508238     0.07500
C591        C  0.35681649  0.88898790  0.10506565     0.09300
C592        C  0.35632320  0.91078383  0.12813535    -0.17400
C593        C  0.13111783  0.64172352  0.07579161    -0.16600
C594        C  0.10880677  0.64200319  0.09838230     0.07500
C595        C  0.07974526  0.64189993  0.12158992     0.09300
C596        C  0.05275138  0.64143403  0.13822931    -0.17400
C597        C  0.14007420  0.63258506  0.94661308    -0.16600
C598        C  0.12302032  0.63130232  0.91987135     0.07500
C599        C  0.09899775  0.63128505  0.89148371     0.09300
C600        C  0.07584358  0.63266860  0.86984196    -0.17400
C601        C  0.23133325  0.58625151  0.01214416    -0.11400
C602        C  0.25529409  0.56568858  0.00921202    -0.12900
C603        C  0.29039819  0.77238722  0.98443747    -0.16600
C604        C  0.26764012  0.75094474  0.98950498     0.07500
C605        C  0.24187718  0.72497883  0.99584178     0.09300
C606        C  0.22077100  0.70216903  0.00200758    -0.17400
C607        C  0.35358460  0.12088186  0.08321868    -0.16600
C608        C  0.35407151  0.09769557  0.10487709     0.07500
C609        C  0.35435783  0.06758096  0.12663746     0.09300
C610        C  0.35429307  0.03972800  0.14177837    -0.17400
C611        C  0.35457387  0.07584141  0.87308176    -0.16600
C612        C  0.35572257  0.09750096  0.89625629     0.07500
C613        C  0.35620981  0.11944363  0.92628684     0.09300
C614        C  0.35588005  0.13476660  0.95409048    -0.17400
C615        C  0.07725145  0.35408613  0.13070389    -0.16600
C616        C  0.10028885  0.35550020  0.10888580     0.07500
C617        C  0.12393974  0.35551322  0.08012420     0.09300
C618        C  0.14069632  0.35415895  0.05315943    -0.17400
C619        C  0.13181097  0.34407024  0.92398819    -0.16600
C620        C  0.10970719  0.34345884  0.90131670     0.07500
C621        C  0.08074922  0.34298648  0.87818685     0.09300
C622        C  0.05375721  0.34297291  0.86169386    -0.17400
C623        C  0.23241440  0.39890661  0.98670667    -0.11400
C624        C  0.25651993  0.41925009  0.98936759    -0.12900
C625        C  0.22072036  0.28362616  0.99801708    -0.16600
C626        C  0.24171188  0.26077659  0.00423427     0.07500
C627        C  0.26738888  0.23484235  0.01075547     0.09300
C628        C  0.29017083  0.21354506  0.01610560    -0.17400
C629        C  0.42536638  0.39993671  0.01527454    -0.14500
C630        C  0.40980282  0.41677001  0.98834103    -0.29700
H631        H  0.41868124  0.40688708  0.04218002     0.14500
H632        H  0.41712885  0.41023194  0.96149585     0.15100
C633        C  0.42765932  0.24578956  0.01537047    -0.11400
C634        C  0.40686411  0.22227123  0.01961486    -0.12900
C635        C  0.86031208  0.35072323  0.94478496    -0.16600
C636        C  0.87732395  0.35111681  0.91794833     0.07500
C637        C  0.90130338  0.35060230  0.88946693     0.09300
C638        C  0.92451428  0.34937667  0.86782692    -0.17400
C639        C  0.86957900  0.34448464  0.07409799    -0.16600
C640        C  0.89200269  0.34430663  0.09654281     0.07500
C641        C  0.92115209  0.34438709  0.11958892     0.09300
C642        C  0.94811439  0.34491681  0.13623123    -0.17400
C643        C  0.64560675  0.13342984  0.04675223    -0.16600
C644        C  0.64488933  0.11790581  0.07450725     0.07500
C645        C  0.64434753  0.09589746  0.10460773     0.09300
C646        C  0.64464028  0.07423602  0.12789325    -0.17400
C647        C  0.64440721  0.04000547  0.85809946    -0.16600
C648        C  0.64436435  0.06773083  0.87344976     0.07500
C649        C  0.64469814  0.09760217  0.89552020     0.09300
C650        C  0.64541162  0.12054724  0.91741045    -0.17400
C651        C  0.57339573  0.24576804  0.98642497    -0.11400
C652        C  0.59400210  0.22201082  0.98237900    -0.12900
C653        C  0.78016386  0.28257772  0.00149706    -0.16600
C654        C  0.75924812  0.25965653  0.99523273     0.07500
C655        C  0.73349686  0.23379166  0.98865665     0.09300
C656        C  0.71054458  0.21261109  0.98351765    -0.17400
C657        C  0.59083057  0.41640980  0.01124894    -0.14500
C658        C  0.57478926  0.39992980  0.98444431    -0.29700
H659        H  0.58393188  0.40968756  0.03817368     0.14500
H660        H  0.58109543  0.40703108  0.95747662     0.15100
C661        C  0.74450697  0.41888169  0.00756254    -0.11400
C662        C  0.76868215  0.39849693  0.01024461    -0.12900
C663        C  0.64297928  0.91106268  0.87153576    -0.16600
C664        C  0.64268354  0.88924770  0.89460123     0.07500
C665        C  0.64305618  0.86719424  0.92456288     0.09300
C666        C  0.64386991  0.85179222  0.95232484    -0.17400
C667        C  0.64660348  0.86512067  0.08154933    -0.16600
C668        C  0.64693320  0.88798693  0.10352267     0.07500
C669        C  0.64772921  0.91772436  0.12574726     0.09300
C670        C  0.64837793  0.94537334  0.14121072    -0.17400
C671        C  0.86876911  0.64238905  0.92499387    -0.16600
C672        C  0.89091700  0.64301567  0.90232345     0.07500
C673        C  0.91987645  0.64317504  0.87912593     0.09300
C674        C  0.94689321  0.64265764  0.86262519    -0.17400
C675        C  0.76839575  0.58617278  0.98700687    -0.11400
C676        C  0.74436705  0.56563550  0.98917597    -0.12900
C677        C  0.85944384  0.63259126  0.05414286    -0.16600
C678        C  0.87645211  0.63179664  0.08096218     0.07500
C679        C  0.90040721  0.63232901  0.10945286     0.09300
C680        C  0.92352443  0.63393415  0.13115257    -0.17400
C681        C  0.70910313  0.77207191  0.01461236    -0.16600
C682        C  0.73177840  0.75051798  0.00991962     0.07500
C683        C  0.75748712  0.72443286  0.00423939     0.09300
C684        C  0.77863919  0.70160679  0.99852807    -0.17400
C685        C  0.57494468  0.58561229  0.01495959    -0.14500
C686        C  0.59086227  0.56914921  0.98797955    -0.29700
H687        H  0.58143163  0.57839928  0.04184144     0.14500
H688        H  0.58374595  0.57597257  0.96115182     0.15100
C689        C  0.42495748  0.58579858  0.98536257    -0.14500
C690        C  0.40865162  0.56965729  0.01227200    -0.29700
H691        H  0.41885418  0.57834655  0.95845825     0.14500
H692        H  0.41531735  0.57667952  0.03916067     0.15100
C693        C  0.42727696  0.74033497  0.98596433    -0.11400
C694        C  0.40684076  0.76423241  0.98174466    -0.12900
C695        C  0.57239879  0.74015959  0.01389660    -0.11400
C696        C  0.59290599  0.76398485  0.01785120    -0.12900
loop_ 
_geom_bond_atom_site_label_1 
_geom_bond_atom_site_label_2 
_geom_bond_distance 
_geom_bond_site_symmetry_2 
_ccdc_geom_bond_type 
O1           Cu9   2.017       .  S
O1           C11   1.279   1_554  A
O2           Cu9   2.013       .  S
O2           C12   1.277       .  A
O3           Cu9   2.021       .  S
O3           C13   1.278   1_554  A
O4           Cu9   2.022       .  S
O4           C14   1.279       .  A
O5          Cu10   2.020       .  S
O5           C14   1.280   1_556  A
O6          Cu10   2.016       .  S
O6           C13   1.277       .  A
O7          Cu10   2.015       .  S
O7           C12   1.277   1_556  A
O8          Cu10   2.015       .  S
O8           C11   1.278       .  A
Cu9         Cu10   2.375   1_554  S
C11         C689   1.480       .  S
C12         C695   1.438       .  S
C13         C693   1.442       .  S
C14         C685   1.485       .  S
C15          C16   1.534       .  S
C15          C21   1.531       .  S
C15          C19   1.534       .  S
C15         C671   1.470       .  S
C16          H23   1.087       .  S
C16          C17   1.365       .  D
C17          C18   1.541   1_556  S
C17         C675   1.445       .  S
C18          C22   1.542       .  S
C18          C20   1.539   1_554  S
C18          H24   1.111       .  S
C19          H25   1.087       .  S
C19          C20   1.365       .  D
C20         C684   1.443       .  S
C21          H26   1.087       .  S
C21          C22   1.362   1_556  D
C22         C677   1.447       .  S
C27          C28   1.536       .  S
C27          C33   1.532       .  S
C27          C31   1.535       .  S
C27         C667   1.471       .  S
C28          H35   1.086       .  S
C28          C29   1.367       .  D
C29          C30   1.538   1_554  S
C29         C696   1.444       .  S
C30          C34   1.539       .  S
C30          C32   1.538   1_556  S
C30          H36   1.112       .  S
C31          H37   1.087       .  S
C31          C32   1.365       .  D
C32         C681   1.442       .  S
C33          H38   1.087       .  S
C33          C34   1.362   1_554  D
C34         C666   1.445       .  S
O39         Cu47   2.028       .  S
O39          C49   1.280   1_554  A
O40         Cu47   2.024       .  S
O40          C50   1.278       .  A
O41         Cu47   2.008       .  S
O41          C51   1.276   1_554  A
O42         Cu47   2.008       .  S
O42          C52   1.277       .  A
O43         Cu48   2.023       .  S
O43          C52   1.280   1_556  A
O44         Cu48   2.019       .  S
O44          C51   1.278       .  A
O45         Cu48   2.016       .  S
O45          C50   1.277   1_556  A
O46         Cu48   2.015       .  S
O46          C49   1.278       .  A
Cu47        Cu48   2.375   1_554  S
C49         C686   1.483       .  S
C50         C661   1.443       .  S
C51         C676   1.438       .  S
C52         C657   1.478       .  S
C53          C54   1.536       .  S
C53          C59   1.533       .  S
C53          C57   1.535       .  S
C53         C650   1.471       .  S
C54          H61   1.086       .  S
C54          C55   1.366       .  D
C55          C56   1.540   1_556  S
C55         C652   1.446       .  S
C56          C60   1.540       .  S
C56          C58   1.539   1_554  S
C56          H62   1.112       .  S
C57          H63   1.087       .  S
C57          C58   1.365       .  D
C58         C656   1.443       .  S
C59          H64   1.087       .  S
C59          C60   1.362   1_556  D
C60         C643   1.447       .  S
C65          C66   1.536       .  S
C65          C71   1.531       .  S
C65          C69   1.535       .  S
C65         C639   1.473       .  S
C66          H73   1.086       .  S
C66          C67   1.367       .  D
C67          C68   1.541   1_554  S
C67         C662   1.449       .  S
C68          C72   1.541       .  S
C68          C70   1.538   1_556  S
C68          H74   1.111       .  S
C69          H75   1.087       .  S
C69          C70   1.366       .  D
C70         C653   1.443       .  S
C71          H76   1.087       .  S
C71          C72   1.362   1_554  D
C72         C635   1.446       .  S
O77         Cu85   2.020       .  S
O77          C87   1.280   1_556  A
O78         Cu85   2.017       .  S
O78          C88   1.277       .  A
O79         Cu85   2.014       .  S
O79          C89   1.277   1_556  A
O80         Cu85   2.014       .  S
O80          C90   1.277       .  A
O81         Cu86   2.015       .  S
O81          C90   1.279   1_554  A
O82         Cu86   2.012       .  S
O82          C89   1.277       .  A
O83         Cu86   2.018       .  S
O83          C88   1.277   1_554  A
O84         Cu86   2.019       .  S
O84          C87   1.278       .  A
Cu85        Cu86   2.375   1_556  S
C87         C629   1.483       .  S
C88         C651   1.441       .  S
C89         C633   1.438       .  S
C90         C658   1.480       .  S
C91          C92   1.534       .  S
C91          C97   1.532       .  S
C91          C95   1.535       .  S
C91         C619   1.469       .  S
C92          H99   1.087       .  S
C92          C93   1.365       .  D
C93          C94   1.539   1_556  S
C93         C623   1.443       .  S
C94          C98   1.540       .  S
C94          C96   1.538   1_554  S
C94         H100   1.112       .  S
C95         H101   1.087       .  S
C95          C96   1.365       .  D
C96         C625   1.443       .  S
C97         H102   1.087       .  S
C97          C98   1.362   1_556  D
C98         C618   1.446       .  S
C103        C104   1.535       .  S
C103        C109   1.532       .  S
C103        C107   1.536       .  S
C103        C607   1.471       .  S
C104        H111   1.086       .  S
C104        C105   1.366       .  D
C105        C106   1.538   1_554  S
C105        C634   1.444       .  S
C106        C110   1.538       .  S
C106        C108   1.538   1_556  S
C106        H112   1.112       .  S
C107        H113   1.086       .  S
C107        C108   1.365       .  D
C108        C628   1.443       .  S
C109        H114   1.087       .  S
C109        C110   1.362   1_554  D
C110        C614   1.445       .  S
C115        C116   1.536       .  S
C115        C121   1.531       .  S
C115        C119   1.535       .  S
C115        C593   1.473       .  S
C116        H123   1.086       .  S
C116        C117   1.367       .  D
C117        C118   1.540   1_554  S
C117        C601   1.447       .  S
C118        C122   1.540       .  S
C118        C120   1.539   1_556  S
C118        H124   1.112       .  S
C119        H125   1.086       .  S
C119        C120   1.366       .  D
C120        C606   1.444       .  S
C121        H126   1.087       .  S
C121        C122   1.362   1_554  D
C122        C597   1.445       .  S
C127        C128   1.538       .  S
C127        C133   1.532       .  S
C127        C131   1.536       .  S
C127        C585   1.474       .  S
C128        H135   1.086       .  S
C128        C129   1.368       .  D
C129        C130   1.539   1_556  S
C129        C694   1.448       .  S
C130        C134   1.539       .  S
C130        C132   1.538   1_554  S
C130        H136   1.112       .  S
C131        H137   1.086       .  S
C131        C132   1.365       .  D
C132        C603   1.444       .  S
C133        H138   1.087       .  S
C133        C134   1.362   1_556  D
C134        C589   1.445       .  S
O139       Cu147   2.021       .  S
O139        C149   1.280   1_556  A
O140       Cu147   2.016       .  S
O140        C150   1.277       .  A
O141       Cu147   2.015       .  S
O141        C151   1.277   1_556  A
O142       Cu147   2.014       .  S
O142        C152   1.278       .  A
O143       Cu148   2.026       .  S
O143        C152   1.280   1_554  A
O144       Cu148   2.020       .  S
O144        C151   1.278       .  A
O145       Cu148   2.009       .  S
O145        C150   1.276   1_554  A
O146       Cu148   2.011       .  S
O146        C149   1.277       .  A
Cu147      Cu148   2.375   1_556  S
C149        C690   1.479       .  S
C150        C624   1.437       .  S
C151        C602   1.441       .  S
C152        C630   1.482       .  S
O153       Cu161   2.012       .  S
O153        C163   1.279   1_545  A
O154       Cu161   2.011       .  S
O154        C164   1.276       .  A
O155       Cu161   2.015       .  S
O155        C165   1.277   1_545  A
O156       Cu161   2.016       .  S
O156        C166   1.278       .  A
O157       Cu162   2.004       .  S
O157        C166   1.278   1_565  A
O158       Cu162   2.005       .  S
O158        C165   1.276       .  A
O159       Cu162   2.019       .  S
O159        C164   1.278   1_565  A
O160       Cu162   2.020       .  S
O160        C163   1.278       .  A
Cu161      Cu162   2.376   1_545  S
C163        C573   1.481       .  S
C164        C583   1.439       .  S
C165        C581   1.436       .  S
C166        C577   1.477       .  S
C167        C168   1.535       .  S
C167        C173   1.531   1_545  S
C167        C171   1.534       .  S
C167        C565   1.470       .  S
C168        H175   1.087       .  S
C168        C169   1.366       .  D
C169        C170   1.539   1_545  S
C169        C563   1.444   1_545  S
C170        C174   1.542       .  S
C170        C172   1.538       .  S
C170        H176   1.111       .  S
C171        H177   1.087       .  S
C171        C172   1.365   1_545  D
C172        C572   1.442       .  S
C173        H178   1.087       .  S
C173        C174   1.362       .  D
C174        C562   1.446       .  S
C179        C180   1.536       .  S
C179        C185   1.532       .  S
C179        C183   1.535       .  S
C179        C663   1.471       .  S
C180        H187   1.086       .  S
C180        C181   1.367       .  D
C181        C182   1.537       .  S
C181        C582   1.442       .  S
C182        C186   1.537   1_565  S
C182        C184   1.537       .  S
C182        H188   1.112   1_565  S
C183        H189   1.087       .  S
C183        C184   1.365       .  D
C184        C569   1.442       .  S
C185        H190   1.087       .  S
C185        C186   1.362   1_565  D
C186        C647   1.444       .  S
O191       Cu199   2.010       .  S
O191        C201   1.276   1_545  A
O192       Cu199   2.014       .  S
O192        C202   1.277       .  A
O193       Cu199   2.015       .  S
O193        C203   1.278       .  A
O194       Cu199   2.017       .  S
O194        C204   1.277   1_545  A
O195       Cu200   2.012       .  S
O195        C204   1.277       .  A
O196       Cu200   2.018       .  S
O196        C203   1.279   1_565  A
O197       Cu200   2.019       .  S
O197        C202   1.280   1_565  A
O198       Cu200   2.018       .  S
O198        C201   1.277       .  A
Cu199      Cu200   2.376   1_545  S
C201        C564   1.438       .  S
C202        C553   1.481       .  S
C203        C574   1.479       .  S
C204        C557   1.439       .  S
C205        C206   1.533       .  S
C205        C211   1.531       .  S
C205        C209   1.536       .  S
C205        C546   1.471       .  S
C206        H213   1.087       .  S
C206        C207   1.365       .  D
C207        C208   1.540   1_565  S
C207        C548   1.444       .  S
C208        C212   1.540       .  S
C208        C210   1.539   1_545  S
C208        H214   1.112       .  S
C209        H215   1.086       .  S
C209        C210   1.366       .  D
C210        C549   1.444       .  S
C211        H216   1.087       .  S
C211        C212   1.362   1_565  D
C212        C542   1.445       .  S
C217        C218   1.536       .  S
C217        C223   1.532       .  S
C217        C221   1.536       .  S
C217        C611   1.472       .  S
C218        H225   1.086       .  S
C218        C219   1.367       .  D
C219        C220   1.539   1_545  S
C219        C584   1.445       .  S
C220        C224   1.540       .  S
C220        C222   1.539   1_565  S
C220        H226   1.112       .  S
C221        H227   1.086       .  S
C221        C222   1.365       .  D
C222        C552   1.444       .  S
C223        H228   1.087       .  S
C223        C224   1.362   1_545  D
C224        C588   1.447       .  S
O229       Cu237   2.014       .  S
O229        C239   1.279   1_545  A
O230       Cu237   2.012       .  S
O230        C240   1.277   1_545  A
O231       Cu237   2.008       .  S
O231        C241   1.276   1_545  A
O232       Cu237   2.007       .  S
O232        C242   1.277   1_545  A
O233       Cu238   2.024       .  S
O233        C242   1.279       .  A
O234       Cu238   2.018       .  S
O234        C241   1.278       .  A
O235       Cu238   2.010       .  S
O235        C240   1.276       .  A
O236       Cu238   2.007       .  S
O236        C239   1.277       .  A
Cu237      Cu238   2.377   1_545  S
C239        C578   1.475       .  S
C240        C537   1.436       .  S
C241        C547   1.438       .  S
C242        C533   1.477       .  S
C243        C244   1.536       .  S
C243        C249   1.533       .  S
C243        C247   1.535       .  S
C243        C592   1.472       .  S
C244        H251   1.086       .  S
C244        C245   1.367       .  D
C245        C246   1.537       .  S
C245        C528   1.443       .  S
C246        C250   1.537   1_565  S
C246        C248   1.537       .  S
C246        H252   1.112   1_565  S
C247        H253   1.087       .  S
C247        C248   1.365       .  D
C248        C532   1.441       .  S
C249        H254   1.087       .  S
C249        C250   1.362   1_565  D
C250        C610   1.443       .  S
C255        C256   1.534       .  S
C255        C261   1.531       .  S
C255        C259   1.534       .  S
C255        C519   1.468       .  S
C256        H263   1.087       .  S
C256        C257   1.365       .  D
C257        C258   1.539   1_545  S
C257        C538   1.442   1_545  S
C258        C262   1.540       .  S
C258        C260   1.538   1_565  S
C258        H264   1.112       .  S
C259        H265   1.087       .  S
C259        C260   1.365       .  D
C260        C529   1.441   1_545  S
C261        H266   1.087       .  S
C261        C262   1.362   1_545  D
C262        C526   1.444       .  S
C267        C268   1.540       .  S
C267        C273   1.532       .  S
C267        C271   1.535       .  S
C267        C646   1.475       .  S
C268        H275   1.086       .  S
C268        C269   1.369       .  D
C269        C270   1.537   1_545  S
C269        C513   1.447       .  S
C270        C274   1.537       .  S
C270        C272   1.538   1_565  S
C270        H276   1.112       .  S
C271        H277   1.087       .  S
C271        C272   1.365       .  D
C272        C515   1.442       .  S
C273        H278   1.087       .  S
C273        C274   1.362   1_545  D
C274        C670   1.443       .  S
C279        C280   1.536       .  S
C279        C285   1.532       .  S
C279        C283   1.535       .  S
C279        C505   1.473       .  S
C280        H287   1.086       .  S
C280        C281   1.367       .  D
C281        C282   1.539   1_565  S
C281        C558   1.445       .  S
C282        C286   1.539       .  S
C282        C284   1.538   1_545  S
C282        H288   1.112       .  S
C283        H289   1.087       .  S
C283        C284   1.365       .  D
C284        C518   1.442       .  S
C285        H290   1.087       .  S
C285        C286   1.362   1_565  D
C286        C509   1.444       .  S
O291       Cu299   2.003       .  S
O291        C301   1.276       .  A
O292       Cu299   1.999       .  S
O292        C302   1.274       .  A
O293       Cu299   2.029       .  S
O293        C303   1.279       .  A
O294       Cu299   2.029       .  S
O294        C304   1.280       .  A
O295       Cu300   2.002       .  S
O295        C304   1.278   1_545  A
O296       Cu300   2.005       .  S
O296        C303   1.275   1_545  A
O297       Cu300   2.024       .  S
O297        C302   1.279   1_545  A
O298       Cu300   2.029       .  S
O298        C301   1.281   1_545  A
Cu299      Cu300   2.375   1_565  S
C301        C554   1.479       .  S
C302        C527   1.437       .  S
C303        C514   1.441       .  S
C304        C534   1.483       .  S
O305       Cu313   1.997       .  S
O305        C315   1.275       .  A
O306       Cu313   1.994       .  S
O306        C316   1.274   1_655  A
O307       Cu313   2.032       .  S
O307        C317   1.280       .  A
O308       Cu313   2.033       .  S
O308        C318   1.282   1_655  A
O309       Cu314   1.997       .  S
O309        C318   1.275       .  A
O310       Cu314   1.996       .  S
O310        C317   1.274   1_455  A
O311       Cu314   2.033       .  S
O311        C316   1.280       .  A
O312       Cu314   2.037       .  S
O312        C315   1.282   1_455  A
Cu313      Cu314   2.376   1_655  S
C315        C497   1.479       .  S
C316        C503   1.438       .  S
C317        C501   1.439       .  S
C318        C493   1.478       .  S
C319        C320   1.536       .  S
C319        C325   1.532       .  S
C319        C323   1.535       .  S
C319        C559   1.473       .  S
C320        H327   1.086       .  S
C320        C321   1.368       .  D
C321        C322   1.537   1_655  S
C321        C487   1.445   1_655  S
C322        C326   1.538       .  S
C322        C324   1.537   1_455  S
C322        H328   1.112       .  S
C323        H329   1.087       .  S
C323        C324   1.365       .  D
C324        C492   1.442       .  S
C325        H330   1.087       .  S
C325        C326   1.362   1_655  D
C326        C543   1.443       .  S
C331        C332   1.537       .  S
C331        C337   1.532       .  S
C331        C335   1.535       .  S
C331        C600   1.473       .  S
C332        H339   1.086       .  S
C332        C333   1.368       .  D
C333        C334   1.537   1_455  S
C333        C502   1.445       .  S
C334        C338   1.538       .  S
C334        C336   1.538   1_655  S
C334        H340   1.112       .  S
C335        H341   1.087       .  S
C335        C336   1.365       .  D
C336        C489   1.442       .  S
C337        H342   1.087       .  S
C337        C338   1.362   1_455  D
C338        C674   1.443       .  S
O343       Cu351   2.006       .  S
O343        C353   1.276       .  A
O344       Cu351   2.011       .  S
O344        C354   1.276       .  A
O345       Cu351   2.022       .  S
O345        C355   1.280       .  A
O346       Cu351   2.022       .  S
O346        C356   1.278       .  A
O347       Cu352   2.004       .  S
O347        C356   1.275   1_655  A
O348       Cu352   2.010       .  S
O348        C355   1.277   1_655  A
O349       Cu352   2.024       .  S
O349        C354   1.281   1_655  A
O350       Cu352   2.024       .  S
O350        C353   1.278   1_655  A
Cu351      Cu352   2.375   1_455  S
C353        C485   1.439       .  S
C354        C498   1.482       .  S
C355        C481   1.480       .  S
C356        C488   1.438       .  S
C357        C358   1.535       .  S
C357        C363   1.532       .  S
C357        C361   1.536       .  S
C357        C680   1.474       .  S
C358        H365   1.086       .  S
C358        C359   1.367       .  D
C359        C360   1.538   1_655  S
C359        C476   1.445       .  S
C360        C364   1.540       .  S
C360        C362   1.538   1_455  S
C360        H366   1.112       .  S
C361        H367   1.086       .  S
C361        C362   1.366       .  D
C362        C480   1.444       .  S
C363        H368   1.087       .  S
C363        C364   1.363   1_655  D
C364        C596   1.446       .  S
C369        C370   1.534       .  S
C369        C375   1.531       .  S
C369        C373   1.535       .  S
C369        C523   1.472       .  S
C370        H377   1.087       .  S
C370        C371   1.366       .  D
C371        C372   1.540   1_455  S
C371        C486   1.446       .  S
C372        C376   1.541       .  S
C372        C374   1.539   1_655  S
C372        H378   1.111       .  S
C373        H379   1.087       .  S
C373        C374   1.365       .  D
C374        C477   1.444       .  S
C375        H380   1.087       .  S
C375        C376   1.362   1_455  D
C376        C508   1.446       .  S
O381       Cu389   2.005       .  S
O381        C391   1.277   1_455  A
O382       Cu389   2.003       .  S
O382        C392   1.275   1_455  A
O383       Cu389   2.026       .  S
O383        C393   1.279   1_455  A
O384       Cu389   2.028       .  S
O384        C394   1.282   1_455  A
O385       Cu390   2.005       .  S
O385        C394   1.275       .  A
O386       Cu390   2.000       .  S
O386        C393   1.275       .  A
O387       Cu390   2.027       .  S
O387        C392   1.279       .  A
O388       Cu390   2.027       .  S
O388        C391   1.280       .  A
Cu389      Cu390   2.375   1_455  S
C391        C482   1.481       .  S
C392        C474   1.440       .  S
C393        C475   1.438       .  S
C394        C470   1.480       .  S
C395        C396   1.536       .  S
C395        C401   1.532       .  S
C395        C399   1.535       .  S
C395        C539   1.472       .  S
C396        H403   1.086       .  S
C396        C397   1.367       .  D
C397        C398   1.536   1_455  S
C397        C464   1.443   1_455  S
C398        C402   1.538       .  S
C398        C400   1.537   1_655  S
C398        H404   1.112       .  S
C399        H405   1.087       .  S
C399        C400   1.365       .  D
C400        C468   1.442       .  S
C401        H406   1.087       .  S
C401        C402   1.362   1_455  D
C402        C568   1.443       .  S
C407        C408   1.537       .  S
C407        C413   1.532       .  S
C407        C411   1.535       .  S
C407        C638   1.474       .  S
C408        H415   1.086       .  S
C408        C409   1.368       .  D
C409        C410   1.536   1_655  S
C409        C504   1.445       .  S
C410        C414   1.536       .  S
C410        C412   1.537   1_455  S
C410        H416   1.112       .  S
C411        H417   1.086       .  S
C411        C412   1.365       .  D
C412        C465   1.442       .  S
C413        H418   1.087       .  S
C413        C414   1.362   1_655  D
C414        C622   1.442       .  S
C419        C420   1.535       .  S
C419        C425   1.532       .  S
C419        C423   1.535       .  S
C419        C512   1.471       .  S
C420        H427   1.086       .  S
C420        C421   1.367       .  D
C421        C422   1.536   1_655  S
C421        C458   1.443   1_655  S
C422        C426   1.537       .  S
C422        C424   1.538   1_455  S
C422        H428   1.112       .  S
C423        H429   1.087       .  S
C423        C424   1.365       .  D
C424        C462   1.442       .  S
C425        H430   1.087       .  S
C425        C426   1.362   1_655  D
C426        C522   1.441       .  S
C431        C432   1.537       .  S
C431        C437   1.533       .  S
C431        C435   1.536       .  S
C431        C615   1.474       .  S
C432        H439   1.086       .  S
C432        C433   1.368       .  D
C433        C434   1.537   1_455  S
C433        C473   1.446       .  S
C434        C438   1.538       .  S
C434        C436   1.537   1_655  S
C434        H440   1.112       .  S
C435        H441   1.087       .  S
C435        C436   1.365       .  D
C436        C459   1.442       .  S
C437        H442   1.087       .  S
C437        C438   1.362   1_455  D
C438        C642   1.445       .  S
O443       Cu451   1.998       .  S
O443        C453   1.275       .  A
O444       Cu451   1.994       .  S
O444        C454   1.274   1_455  A
O445       Cu451   2.025       .  S
O445        C455   1.279       .  A
O446       Cu451   2.026       .  S
O446        C456   1.282   1_455  A
O447       Cu452   2.004       .  S
O447        C456   1.275       .  A
O448       Cu452   1.996       .  S
O448        C455   1.274   1_655  A
O449       Cu452   2.028       .  S
O449        C454   1.279       .  A
O450       Cu452   2.032       .  S
O450        C453   1.282   1_655  A
Cu451      Cu452   2.376   1_455  S
C453        C469   1.478       .  S
C454        C463   1.436       .  S
C455        C457   1.436       .  S
C456        C494   1.480       .  S
C457        C458   1.206       .  T
C459        C460   1.206       .  T
C460        C461   1.413       .  S
C461        C462   1.206   1_455  T
C463        C464   1.207       .  T
C465        C466   1.206       .  T
C466        C467   1.413   1_655  S
C467        C468   1.206       .  T
C469        H471   1.087       .  S
C469        C470   1.342   1_455  D
C470        H472   1.087       .  S
C473        C474   1.208   1_455  T
C475        C476   1.208       .  T
C477        C478   1.207   1_455  T
C478        C479   1.414       .  S
C479        C480   1.207       .  T
C481        H483   1.087       .  S
C481        C482   1.349   1_455  D
C482        H484   1.086       .  S
C485        C486   1.208       .  T
C487        C488   1.208       .  T
C489        C490   1.206       .  T
C490        C491   1.413       .  S
C491        C492   1.206   1_455  T
C493        H495   1.087       .  S
C493        C494   1.342   1_455  D
C494        H496   1.087       .  S
C497        H499   1.087       .  S
C497        C498   1.343   1_655  D
C498        H500   1.087       .  S
C501        C502   1.208   1_655  T
C503        C504   1.208   1_455  T
C505        C506   1.209       .  T
C506        C507   1.416       .  S
C507        C508   1.208       .  T
C509        C510   1.207       .  T
C510        C511   1.415       .  S
C511        C512   1.208       .  T
C513        C514   1.209   1_545  T
C515        C516   1.206       .  T
C516        C517   1.413       .  S
C517        C518   1.206   1_545  T
C519        C520   1.206       .  T
C520        C521   1.412       .  S
C521        C522   1.206       .  T
C523        C524   1.208       .  T
C524        C525   1.415       .  S
C525        C526   1.208       .  T
C527        C528   1.207       .  T
C529        C530   1.206       .  T
C530        C531   1.412       .  S
C531        C532   1.206       .  T
C533        H535   1.087   1_565  S
C533        C534   1.347       .  D
C534        H536   1.086       .  S
C537        C538   1.206       .  T
C539        C540   1.208       .  T
C540        C541   1.415       .  S
C541        C542   1.208       .  T
C543        C544   1.207       .  T
C544        C545   1.414       .  S
C545        C546   1.207       .  T
C547        C548   1.207       .  T
C549        C550   1.207   1_565  T
C550        C551   1.414       .  S
C551        C552   1.207       .  T
C553        H555   1.087       .  S
C553        C554   1.344   1_545  D
C554        H556   1.087       .  S
C557        C558   1.208       .  T
C559        C560   1.209       .  T
C560        C561   1.417       .  S
C561        C562   1.209       .  T
C563        C564   1.208       .  T
C565        C566   1.207       .  T
C566        C567   1.414       .  S
C567        C568   1.207       .  T
C569        C570   1.206       .  T
C570        C571   1.412       .  S
C571        C572   1.206       .  T
C573        H575   1.087       .  S
C573        C574   1.346   1_565  D
C574        H576   1.087       .  S
C577        H579   1.087       .  S
C577        C578   1.345   1_545  D
C578        H580   1.087       .  S
C581        C582   1.206       .  T
C583        C584   1.208       .  T
C585        C586   1.209       .  T
C586        C587   1.417       .  S
C587        C588   1.209       .  T
C589        C590   1.208       .  T
C590        C591   1.415       .  S
C591        C592   1.208       .  T
C593        C594   1.209       .  T
C594        C595   1.416       .  S
C595        C596   1.208       .  T
C597        C598   1.208       .  T
C598        C599   1.416       .  S
C599        C600   1.209       .  T
C601        C602   1.209       .  T
C603        C604   1.207       .  T
C604        C605   1.415       .  S
C605        C606   1.207   1_556  T
C607        C608   1.207       .  T
C608        C609   1.414       .  S
C609        C610   1.207       .  T
C611        C612   1.208       .  T
C612        C613   1.415       .  S
C613        C614   1.208       .  T
C615        C616   1.209       .  T
C616        C617   1.417       .  S
C617        C618   1.209       .  T
C619        C620   1.206       .  T
C620        C621   1.412       .  S
C621        C622   1.206       .  T
C623        C624   1.207       .  T
C625        C626   1.206   1_556  T
C626        C627   1.414       .  S
C627        C628   1.207       .  T
C629        H631   1.087       .  S
C629        C630   1.346   1_554  D
C630        H632   1.087       .  S
C633        C634   1.207       .  T
C635        C636   1.209       .  T
C636        C637   1.417       .  S
C637        C638   1.209       .  T
C639        C640   1.209       .  T
C640        C641   1.416       .  S
C641        C642   1.208       .  T
C643        C644   1.209       .  T
C644        C645   1.418       .  S
C645        C646   1.210       .  T
C647        C648   1.207       .  T
C648        C649   1.414       .  S
C649        C650   1.207       .  T
C651        C652   1.209       .  T
C653        C654   1.207   1_554  T
C654        C655   1.414       .  S
C655        C656   1.207       .  T
C657        H659   1.087       .  S
C657        C658   1.345   1_554  D
C658        H660   1.087       .  S
C661        C662   1.210       .  T
C663        C664   1.208       .  T
C664        C665   1.415       .  S
C665        C666   1.208       .  T
C667        C668   1.207       .  T
C668        C669   1.414       .  S
C669        C670   1.207       .  T
C671        C672   1.207       .  T
C672        C673   1.413       .  S
C673        C674   1.206       .  T
C675        C676   1.208       .  T
C677        C678   1.209       .  T
C678        C679   1.418       .  S
C679        C680   1.209       .  T
C681        C682   1.206       .  T
C682        C683   1.413       .  S
C683        C684   1.206   1_554  T
C685        H687   1.087       .  S
C685        C686   1.347   1_554  D
C686        H688   1.087       .  S
C689        H691   1.087       .  S
C689        C690   1.345   1_556  D
C690        H692   1.087       .  S
C693        C694   1.210       .  T
C695        C696   1.208       .  T
