geometry optimzed in LAMMPS
_audit_creation_date              2020-11-30 
_audit_creation_method            'lammps2cif' 
_symmetry_space_group_name_H-M    'P1' 
_symmetry_Int_Tables_number       1 
_symmetry_cell_setting            triclinic 
loop_ 
_symmetry_equiv_pos_as_xyz 
  x,y,z 
_cell_length_a                    75.21821173 
_cell_length_b                    75.34751595874621 
_cell_length_c                    44.816350874478694 
_cell_angle_alpha                 90.0806778605918 
_cell_angle_beta                  90.1316554433812 
_cell_angle_gamma                 89.95662725773985 
loop_ 
_atom_site_label 
_atom_site_type_symbol 
_atom_site_fract_x 
_atom_site_fract_y 
_atom_site_fract_z 
_atom_site_charge 
C1          C  0.84886277  0.74918954  0.47056481     0.87100
C2          C  0.83895802  0.76698439  0.47282439    -0.53100
C3          C  0.84537049  0.77648378  0.99492754     0.10000
C4          C  0.85996250  0.76794800  0.01480274     0.21000
C5          C  0.86858012  0.75397905  0.47068126    -0.53900
C6          C  0.87522503  0.76290633  0.99305112     0.10100
C7          C  0.84503197  0.74100231  0.50141144    -0.53400
C8          C  0.85173152  0.75003937  0.02428882     0.10700
H9          H  0.82729425  0.77001492  0.45957376     0.15200
H10         H  0.86420893  0.77637361  0.03387566     0.01000
H11         H  0.87762939  0.74968593  0.45323082     0.15500
H12         H  0.83917127  0.72759344  0.00404379     0.15300
N13         N  0.84507624  0.63098525  0.20419046    -0.36000
N14         N  0.83692559  0.65733633  0.24744324    -0.56600
N15         N  0.83605750  0.63013489  0.29425246    -0.36000
N16         N  0.84530259  0.60367543  0.25086015    -0.56600
C17         C  0.84902877  0.64590486  0.18867240     0.27600
C18         C  0.85295449  0.61721079  0.19015325     0.27600
C19         C  0.83715198  0.64516094  0.31058257     0.27600
C20         C  0.84069118  0.61651738  0.31234129     0.27600
C21         C  0.83428690  0.66709113  0.22256247     0.36200
C22         C  0.83000267  0.66668584  0.27026310     0.36200
C23         C  0.84541586  0.59332772  0.22625062     0.36200
C24         C  0.84115273  0.59295285  0.27400790     0.36200
C25         C  0.85970666  0.64151055  0.16457036    -0.21300
C26         C  0.86202506  0.62335025  0.16533638    -0.21300
C27         C  0.84232416  0.64102662  0.33952012    -0.21300
C28         C  0.84442267  0.62289233  0.34066951    -0.21300
C29         C  0.82526214  0.68259716  0.22955016    -0.22300
C30         C  0.82277926  0.68245276  0.25993530    -0.22300
C31         C  0.84140750  0.57593331  0.23384481    -0.22300
C32         C  0.83886955  0.57567952  0.26419371    -0.22300
C33         C  0.84201895  0.66304990  0.19464387    -0.17700
C34         C  0.85048097  0.59913210  0.19749797    -0.17700
C35         C  0.84071121  0.59844144  0.30410526    -0.17700
C36         C  0.83253548  0.66232720  0.30050476    -0.17700
H37         H  0.86488510  0.65038516  0.14773669     0.15200
H38         H  0.86929784  0.61550068  0.14920959     0.15200
H39         H  0.84414102  0.65009415  0.35803146     0.15200
H40         H  0.84825047  0.61528280  0.36011846     0.15200
H41         H  0.82159747  0.69324878  0.21456925     0.13500
H42         H  0.81683209  0.69295206  0.27306777     0.13500
H43         H  0.84072955  0.56453501  0.21916789     0.13500
H44         H  0.83581617  0.56411251  0.27752259     0.13500
H45         H  0.83558480  0.62978933  0.22091434     0.26800
H46         H  0.83066897  0.62908444  0.27292750     0.26800
C47         C  0.85297031  0.20357297  0.02950874     0.87100
C48         C  0.84046318  0.18765699  0.02682390    -0.53100
C49         C  0.84392096  0.17669965  0.00341118     0.10000
C50         C  0.86034342  0.18218448  0.48503334     0.21000
C51         C  0.87181182  0.19552755  0.02960410    -0.53900
C52         C  0.87563872  0.18428314  0.00607792     0.10100
C53         C  0.85255873  0.21295684  0.99922078    -0.53400
C54         C  0.85657646  0.20174750  0.47610289     0.10700
H55         H  0.82952478  0.18542102  0.04210190     0.15200
H56         H  0.86194610  0.17313484  0.46589166     0.01000
H57         H  0.88151759  0.19916565  0.04647361     0.15500
H58         H  0.85145900  0.22718275  0.99632008     0.15300
N59         N  0.84372232  0.32108645  0.29816039    -0.36000
N60         N  0.83976061  0.34998170  0.25441647    -0.56600
N61         N  0.84552955  0.32506075  0.20747485    -0.36000
N62         N  0.84842878  0.29618409  0.25138230    -0.56600
C63         C  0.83675236  0.33419892  0.31504385     0.27600
C64         C  0.84151456  0.30564142  0.31320208     0.27600
C65         C  0.83981883  0.33928830  0.19172908     0.27600
C66         C  0.84319640  0.31060912  0.19009064     0.27600
C67         C  0.84125499  0.35939990  0.27990582     0.36200
C68         C  0.84265191  0.36151035  0.23182193     0.36200
C69         C  0.85370679  0.28591585  0.27448520     0.36200
C70         C  0.85379438  0.28792088  0.22629666     0.36200
C71         C  0.83000892  0.32707220  0.34118929    -0.21300
C72         C  0.83282108  0.30900007  0.33986137    -0.21300
C73         C  0.83388629  0.33385650  0.16390257    -0.21300
C74         C  0.83594605  0.31569009  0.16289619    -0.21300
C75         C  0.84481467  0.37705848  0.27346887    -0.22300
C76         C  0.84583323  0.37835867  0.24296695    -0.22300
C77         C  0.86273881  0.27114052  0.26400252    -0.22300
C78         C  0.86256819  0.27228895  0.23336650    -0.22300
C79         C  0.83821364  0.35251545  0.30875335    -0.17700
C80         C  0.84866906  0.28899757  0.30444147    -0.17700
C81         C  0.84894878  0.29327834  0.19726866    -0.17700
C82         C  0.84115307  0.35710871  0.20128612    -0.17700
H83         H  0.82400914  0.33418246  0.35958918     0.15200
H84         H  0.82938895  0.29950498  0.35700150     0.15200
H85         H  0.82883354  0.34215037  0.14609356     0.15200
H86         H  0.83287263  0.30724642  0.14402081     0.15200
H87         H  0.84634784  0.38792792  0.28907133     0.13500
H88         H  0.84832871  0.39036917  0.23044577     0.13500
H89         H  0.86828443  0.26036782  0.27698425     0.13500
H90         H  0.86797022  0.26258961  0.21801966     0.13500
H91         H  0.85174749  0.32303877  0.27961651     0.26800
H92         H  0.85266690  0.32540364  0.22734998     0.26800
O93         O  0.82871196  0.46169353  0.03534604    -0.73800
O94         O  0.82782884  0.49508652  0.46999891    -0.73800
O95         O  0.82516048  0.45904512  0.47020548    -0.73900
O96         O  0.83250330  0.49735639  0.03460182    -0.74000
O97         O  0.86193308  0.49482833  0.03016193    -0.73900
O98         O  0.85470617  0.45635312  0.46857020    -0.73900
O99         O  0.85727136  0.49236339  0.46600381    -0.73800
O100        O  0.85819143  0.45906205  0.03274180    -0.73900
Ni101      Ni  0.82820579  0.47950396  0.00486782     1.25400
Ni102      Ni  0.85971429  0.47625287  0.00107617     1.25400
C103        C  0.84325534  0.45460149  0.04429520     0.88400
C104        C  0.84259860  0.49973484  0.45821606     0.88300
C105        C  0.83919568  0.45145646  0.46020626     0.88300
C106        C  0.84826915  0.50197653  0.04223929     0.88500
C107        C  0.80718021  0.80231211  0.02978124     0.87100
C108        C  0.82408762  0.79063196  0.02950482    -0.53100
C109        C  0.83395082  0.79176614  0.00392685     0.10000
C110        C  0.82477324  0.80612252  0.48327915     0.21000
C111        C  0.81365919  0.82101749  0.02361830    -0.53900
C112        C  0.82356795  0.82276711  0.99858476     0.10100
C113        C  0.79763584  0.79630600  0.00092129    -0.53400
C114        C  0.80578541  0.79931050  0.47595595     0.10700
H115        H  0.82664027  0.78041553  0.04591550     0.15200
H116        H  0.83356744  0.80782551  0.46370206     0.01000
H117        H  0.81064833  0.83217914  0.03815667     0.15500
H118        H  0.78432656  0.79079258  0.00103425     0.15300
N119        N  0.68416442  0.79461276  0.20573715    -0.36000
N120        N  0.65769284  0.78738937  0.25054542    -0.56600
N121        N  0.68543762  0.78749918  0.29699424    -0.36000
N122        N  0.71201401  0.79329387  0.25228354    -0.56600
C123        C  0.66995880  0.79071218  0.18811775     0.27600
C124        C  0.69897505  0.79328477  0.18873722     0.27600
C125        C  0.67152387  0.78047538  0.31193184     0.27600
C126        C  0.70031332  0.78416994  0.31320428     0.27600
C127        C  0.64685817  0.79162731  0.22747027     0.36200
C128        C  0.64758357  0.78793124  0.27539899     0.36200
C129        C  0.72196644  0.79818174  0.22862389     0.36200
C130        C  0.72243789  0.79523581  0.27677681     0.36200
C131        C  0.67580653  0.78722846  0.15941174    -0.21300
C132        C  0.69405956  0.78894906  0.15974472    -0.21300
C133        C  0.67761895  0.77258064  0.33798577    -0.21300
C134        C  0.69578308  0.77500585  0.33885985    -0.21300
C135        C  0.62980289  0.79488563  0.23768001    -0.22300
C136        C  0.63026917  0.79263199  0.26806399    -0.22300
C137        C  0.73883272  0.80310388  0.23818968    -0.22300
C138        C  0.73905941  0.80140730  0.26865332    -0.22300
C139        C  0.65183102  0.79093623  0.19708082    -0.17700
C140        C  0.71671976  0.79661922  0.19832836    -0.17700
C141        C  0.71772140  0.78989943  0.30597308    -0.17700
C142        C  0.65336582  0.78266400  0.30415590    -0.17700
H143        H  0.66776013  0.78388705  0.14015930     0.15200
H144        H  0.70270938  0.78721126  0.14070256     0.15200
H145        H  0.66972861  0.76612435  0.35496558     0.15200
H146        H  0.70462873  0.77063003  0.35645914     0.15200
H147        H  0.61819161  0.79824847  0.22453642     0.13500
H148        H  0.61903605  0.79394040  0.28295576     0.13500
H149        H  0.74999923  0.80715593  0.22465031     0.13500
H150        H  0.75036444  0.80388421  0.28304751     0.13500
H151        H  0.68371839  0.79952760  0.22738338     0.26800
H152        H  0.68447541  0.79598451  0.27880172     0.26800
C153        C  0.25290776  0.79956173  0.46821311     0.87100
C154        C  0.23684270  0.78703606  0.47187517    -0.53100
C155        C  0.22824075  0.78966401  0.99771429     0.10000
C156        C  0.23494017  0.80456924  0.01880046     0.21000
C157        C  0.24411021  0.81791401  0.47099375    -0.53900
C158        C  0.23610931  0.82119833  0.99878602     0.10100
C159        C  0.26384555  0.79730817  0.49691214    -0.53400
C160        C  0.25441647  0.79955213  0.02568721     0.10700
H161        H  0.23362400  0.77664725  0.45626823     0.15200
H162        H  0.22653520  0.80630240  0.03890312     0.01000
H163        H  0.24397187  0.82789198  0.45362716     0.15500
H164        H  0.27856234  0.79442515  0.00140605     0.15300
N165        N  0.37612942  0.78481430  0.29237824    -0.36000
N166        N  0.40303281  0.78359139  0.24709178    -0.56600
N167        N  0.37568265  0.78857477  0.20117869    -0.36000
N168        N  0.34876852  0.78871294  0.24679619    -0.56600
C169        C  0.39017074  0.77884954  0.30841273     0.27600
C170        C  0.36126961  0.78072054  0.30779857     0.27600
C171        C  0.38973256  0.78381742  0.18418936     0.27600
C172        C  0.36083889  0.78676334  0.18423554     0.27600
C173        C  0.41368185  0.78492360  0.27137474     0.36200
C174        C  0.41349271  0.78627319  0.22307808     0.36200
C175        C  0.33926661  0.79241113  0.27154099     0.36200
C176        C  0.33899774  0.79445713  0.22340603     0.36200
C177        C  0.38422144  0.77089933  0.33437453    -0.21300
C178        C  0.36593386  0.77190914  0.33385170    -0.21300
C179        C  0.38377842  0.77922122  0.15587042    -0.21300
C180        C  0.36552738  0.78093979  0.15598862    -0.21300
C181        C  0.43100449  0.78835991  0.26280041    -0.22300
C182        C  0.43092352  0.78909052  0.23218994    -0.22300
C183        C  0.32345247  0.80073295  0.26386534    -0.22300
C184        C  0.32322285  0.80189562  0.23328547    -0.22300
C185        C  0.40819981  0.78145457  0.30091454    -0.17700
C186        C  0.34389962  0.78656925  0.30047707    -0.17700
C187        C  0.34336839  0.79131564  0.19325499    -0.17700
C188        C  0.40781629  0.78478220  0.19302920    -0.17700
H189        H  0.39223197  0.76512424  0.35195425     0.15200
H190        H  0.35710083  0.76720489  0.35114588     0.15200
H191        H  0.39173878  0.77520830  0.13694571     0.15200
H192        H  0.35675542  0.77849672  0.13725367     0.15200
H193        H  0.44256236  0.78972517  0.27705098     0.13500
H194        H  0.44247400  0.79116195  0.21828354     0.13500
H195        H  0.31294509  0.80502830  0.27867167     0.13500
H196        H  0.31254155  0.80727266  0.21982241     0.13500
H197        H  0.37676622  0.79328329  0.27409888     0.26800
H198        H  0.37644106  0.79462591  0.22198884     0.26800
O199        O  0.54887446  0.76704683  0.03090437    -0.73800
O200        O  0.51171432  0.76333025  0.46939330    -0.73800
O201        O  0.54772689  0.76355785  0.46749139    -0.73900
O202        O  0.51268463  0.76596027  0.03180679    -0.74000
O203        O  0.51100151  0.79529474  0.02579105    -0.73900
O204        O  0.54853852  0.79297291  0.46694405    -0.73900
O205        O  0.51243928  0.79283456  0.46584779    -0.73800
O206        O  0.54713207  0.79653024  0.02775585    -0.73900
Ni207      Ni  0.53040047  0.76367034  0.00145468     1.25400
Ni208      Ni  0.52952730  0.79515740  0.99647635     1.25400
C209        C  0.55401918  0.78252795  0.03919656     0.88400
C210        C  0.50603017  0.77780393  0.45775045     0.88300
C211        C  0.55405576  0.77801343  0.45694488     0.88300
C212        C  0.50584071  0.78100064  0.03856072     0.88500
C213        C  0.80492633  0.14974299  0.47475917     0.87100
C214        C  0.82119579  0.16222163  0.47318264    -0.53100
C215        C  0.83200447  0.16147558  0.99648608     0.10000
C216        C  0.82587644  0.14767559  0.02010294     0.21000
C217        C  0.81256388  0.13130774  0.48013073    -0.53900
C218        C  0.82311847  0.12998256  0.00275419     0.10100
C219        C  0.79645810  0.15531064  0.50464553    -0.53400
C220        C  0.80692042  0.15386654  0.02828223     0.10700
H221        H  0.82258264  0.17252032  0.45651130     0.15200
H222        H  0.83500396  0.14660980  0.03951090     0.01000
H223        H  0.80912158  0.11995354  0.46629235     0.15500
H224        H  0.78287447  0.16091491  0.00579597     0.15300
N225        N  0.68696320  0.15970376  0.20297479    -0.36000
N226        N  0.71214729  0.15808591  0.25098689    -0.56600
N227        N  0.68244638  0.15496223  0.29412412    -0.36000
N228        N  0.65729718  0.15837563  0.24620299    -0.56600
C229        C  0.70202587  0.16419726  0.18817001     0.27600
C230        C  0.67301279  0.16410437  0.18540729     0.27600
C231        C  0.69639854  0.15682299  0.31291419     0.27600
C232        C  0.66738008  0.15742315  0.31025193     0.27600
C233        C  0.72365546  0.15648443  0.22792190     0.36200
C234        C  0.72129661  0.15377075  0.27589394     0.36200
C235        C  0.64810690  0.15683366  0.22043103     0.36200
C236        C  0.64563736  0.15515351  0.26852979     0.36200
C237        C  0.69754169  0.17147739  0.16078145    -0.21300
C238        C  0.67924380  0.17135418  0.15898432    -0.21300
C239        C  0.69012779  0.16005861  0.34152988    -0.21300
C240        C  0.67185938  0.16047910  0.33982520    -0.21300
C241        C  0.74019200  0.15121691  0.23824259    -0.22300
C242        C  0.73876976  0.14970090  0.26861305    -0.22300
C243        C  0.63048120  0.15274282  0.22644655    -0.22300
C244        C  0.62890188  0.15181942  0.25689980    -0.22300
C245        C  0.71967995  0.16074606  0.19789769    -0.17700
C246        C  0.65488569  0.16063566  0.19169428    -0.17700
C247        C  0.64969442  0.15614680  0.29932293    -0.17700
C248        C  0.71458570  0.15464817  0.30536957    -0.17700
H249        H  0.70653053  0.17614093  0.14367997     0.15200
H250        H  0.67141514  0.17592503  0.14021117     0.15200
H251        H  0.69788022  0.16177870  0.36169526     0.15200
H252        H  0.66291194  0.16260477  0.35836768     0.15200
H253        H  0.75212754  0.14896745  0.22533830     0.13500
H254        H  0.74948344  0.14611703  0.28358826     0.13500
H255        H  0.61974979  0.15100437  0.21057847     0.13500
H256        H  0.61678678  0.14912056  0.26904661     0.13500
H257        H  0.68615807  0.15204384  0.22216723     0.26800
H258        H  0.68329546  0.15046847  0.27229915     0.26800
C259        C  0.24969123  0.14493547  0.03868923     0.87100
C260        C  0.23597255  0.16015073  0.03463462    -0.53100
C261        C  0.22749152  0.16017137  0.00747352     0.10000
C262        C  0.23402350  0.14411115  0.48640909     0.21000
C263        C  0.23939611  0.12799272  0.03193800    -0.53900
C264        C  0.23042445  0.12764498  0.00538792     0.10100
C265        C  0.26207278  0.14754169  0.01192147    -0.53400
C266        C  0.25456449  0.14645240  0.48405756     0.10700
H267        H  0.23401366  0.17085181  0.05045134     0.15200
H268        H  0.22704574  0.14428035  0.46463433     0.01000
H269        H  0.23938160  0.11688680  0.04737905     0.15500
H270        H  0.27630690  0.14960888  0.01422163     0.15300
N271        N  0.37648224  0.14847504  0.30188154    -0.36000
N272        N  0.40267022  0.14719481  0.25337452    -0.56600
N273        N  0.37428434  0.14859426  0.20994986    -0.36000
N274        N  0.34809194  0.15158348  0.25874299    -0.56600
C275        C  0.39185880  0.15096270  0.31704063     0.27600
C276        C  0.36300118  0.15381777  0.31985214     0.27600
C277        C  0.38844615  0.15134381  0.19172094     0.27600
C278        C  0.35931606  0.15219472  0.19422669     0.27600
C279        C  0.41326139  0.14299065  0.27670663     0.36200
C280        C  0.41226280  0.14406707  0.22841020     0.36200
C281        C  0.33826189  0.14951291  0.28385513     0.36200
C282        C  0.33693044  0.14896245  0.23542028     0.36200
C283        C  0.38813189  0.15786322  0.34504882    -0.21300
C284        C  0.36994192  0.15978002  0.34674011    -0.21300
C285        C  0.38232644  0.15668597  0.16395656    -0.21300
C286        C  0.36400294  0.15690785  0.16535938    -0.21300
C287        C  0.42965712  0.13716299  0.26656079    -0.22300
C288        C  0.42903091  0.13785760  0.23597967    -0.22300
C289        C  0.32080075  0.14571787  0.27640132    -0.22300
C290        C  0.31988669  0.14565958  0.24587435    -0.22300
C291        C  0.40904694  0.14612387  0.30697565    -0.17700
C292        C  0.34458128  0.15211556  0.31340986    -0.17700
C293        C  0.34157194  0.15023153  0.20476120    -0.17700
C294        C  0.40662760  0.14811962  0.19899874    -0.17700
H295        H  0.39753695  0.16104395  0.36256979     0.15200
H296        H  0.36262741  0.16466804  0.36583114     0.15200
H297        H  0.39020684  0.15968964  0.14443595     0.15200
H298        H  0.35518933  0.16012353  0.14704580     0.15200
H299        H  0.44104028  0.13324434  0.27982862     0.13500
H300        H  0.43979409  0.13444956  0.22103725     0.13500
H301        H  0.30976093  0.14345453  0.29135132     0.13500
H302        H  0.30792471  0.14345103  0.23295742     0.13500
H303        H  0.37522279  0.14150180  0.28197203     0.26800
H304        H  0.37454708  0.14275567  0.23088223     0.26800
O305        O  0.51244945  0.16670809  0.03306128    -0.73800
O306        O  0.54507686  0.16995713  0.46671860    -0.73800
O307        O  0.50928816  0.16560923  0.47143977    -0.73900
O308        O  0.54830168  0.17026540  0.02878320    -0.74000
O309        O  0.55047455  0.14085702  0.03334505    -0.73900
O310        O  0.51378406  0.13643664  0.47544581    -0.73900
O311        O  0.54956319  0.14099647  0.47334808    -0.73800
O312        O  0.51441523  0.13738991  0.03505060    -0.73900
Ni313      Ni  0.52917651  0.16826256  0.00067105     1.25400
Ni314      Ni  0.53228586  0.13685374  0.00401132     1.25400
C315        C  0.50748474  0.15193219  0.04454142     0.88400
C316        C  0.55299641  0.15548650  0.45946888     0.88300
C317        C  0.50547621  0.14962192  0.46402718     0.88300
C318        C  0.55554423  0.15653884  0.04041180     0.88500
C319        C  0.20318209  0.75324196  0.03992336     0.87100
C320        C  0.21698636  0.76775990  0.03371707    -0.53100
C321        C  0.21484321  0.77625040  0.00711437     0.10000
C322        C  0.19808106  0.76889067  0.48805140     0.21000
C323        C  0.18520110  0.76245251  0.03588272    -0.53900
C324        C  0.18271275  0.77046655  0.00904082     0.10100
C325        C  0.20541766  0.74106060  0.01248259    -0.53400
C326        C  0.20181604  0.74850883  0.48521919     0.10700
H327        H  0.22870888  0.77018354  0.04703325     0.15200
H328        H  0.19589750  0.77627454  0.46724236     0.01000
H329        H  0.17496316  0.76233478  0.05294983     0.15500
H330        H  0.20977415  0.72745586  0.01527050     0.15300
N331        N  0.21430711  0.62857748  0.30227465    -0.36000
N332        N  0.21286097  0.60158631  0.25445793    -0.56600
N333        N  0.21895307  0.62897801  0.21036002    -0.36000
N334        N  0.21883723  0.65591970  0.25804669    -0.56600
C335        C  0.20843031  0.61438082  0.31783803     0.27600
C336        C  0.21195508  0.64315890  0.31964640     0.27600
C337        C  0.21534851  0.61501298  0.19218652     0.27600
C338        C  0.21670225  0.64398106  0.19414492     0.27600
C339        C  0.21252664  0.59085930  0.27867167     0.36200
C340        C  0.21575875  0.59101048  0.23043019     0.36200
C341        C  0.22094647  0.66610860  0.28267816     0.36200
C342        C  0.22251804  0.66635747  0.23439856     0.36200
C343        C  0.20262142  0.61995644  0.34570008    -0.21300
C344        C  0.20483770  0.63808139  0.34682641    -0.21300
C345        C  0.21134249  0.62123125  0.16385121    -0.21300
C346        C  0.21191473  0.63945607  0.16520117    -0.21300
C347        C  0.21497558  0.57336956  0.26990962    -0.22300
C348        C  0.21700218  0.57346509  0.23942844    -0.22300
C349        C  0.22614622  0.68307369  0.27464734    -0.22300
C350        C  0.22714530  0.68323409  0.24406938    -0.22300
C351        C  0.20914213  0.59639424  0.30843882    -0.17700
C352        C  0.21643683  0.66087646  0.31199051    -0.17700
C353        C  0.21949783  0.66164492  0.20423682    -0.17700
C354        C  0.21601794  0.59680429  0.20028395    -0.17700
H355        H  0.19740483  0.61179405  0.36349790     0.15200
H356        H  0.20160585  0.64654270  0.36558743     0.15200
H357        H  0.20815526  0.61351040  0.14419452     0.15200
H358        H  0.20929409  0.64834699  0.14676076     0.15200
H359        H  0.21512413  0.56170959  0.28398948     0.13500
H360        H  0.21892232  0.56189169  0.22547314     0.13500
H361        H  0.22842019  0.69431442  0.28922588     0.13500
H362        H  0.23031428  0.69464390  0.23043462     0.13500
H363        H  0.22114061  0.62801344  0.28221714     0.26800
H364        H  0.22422797  0.62825366  0.23175071     0.26800
C365        C  0.20216760  0.19777712  0.46853202     0.87100
C366        C  0.21616776  0.18283696  0.47229702    -0.53100
C367        C  0.21480081  0.17464250  0.99854298     0.10000
C368        C  0.19933208  0.18142226  0.01849785     0.21000
C369        C  0.18472998  0.18746386  0.47247122    -0.53900
C370        C  0.18258928  0.18016503  0.99828326     0.10100
C371        C  0.20374772  0.20928295  0.49674913    -0.53400
C372        C  0.20266759  0.20156855  0.02230086     0.10700
H373        H  0.22602541  0.17959324  0.45549718     0.15200
H374        H  0.19823272  0.17397160  0.03971361     0.01000
H375        H  0.17440419  0.18626387  0.45577057     0.15500
H376        H  0.20498065  0.22446406  0.99390795     0.15300
N377        N  0.21499915  0.32303751  0.29313211    -0.36000
N378        N  0.21054514  0.29517554  0.24847031    -0.56600
N379        N  0.21432422  0.32109391  0.20161181    -0.36000
N380        N  0.22013178  0.34888971  0.24643433    -0.56600
C381        C  0.21740941  0.30829256  0.30993070     0.27600
C382        C  0.22077433  0.33709867  0.30932740     0.27600
C383        C  0.21528367  0.30582759  0.18563816     0.27600
C384        C  0.22093838  0.33425186  0.18438659     0.27600
C385        C  0.20585048  0.28628645  0.27335810     0.36200
C386        C  0.20487532  0.28532309  0.22510391     0.36200
C387        C  0.21877339  0.36016268  0.26989361     0.36200
C388        C  0.21944234  0.35897480  0.22151169     0.36200
C389        C  0.22496689  0.31305950  0.33704706    -0.21300
C390        C  0.22669988  0.33124788  0.33693239    -0.21300
C391        C  0.22244935  0.30936677  0.15780819    -0.21300
C392        C  0.22599699  0.32730834  0.15700322    -0.21300
C393        C  0.19697305  0.27078516  0.26576214    -0.22300
C394        C  0.19643464  0.27013893  0.23513438    -0.22300
C395        C  0.21755217  0.37749938  0.25982109    -0.22300
C396        C  0.21793091  0.37674802  0.22920743    -0.22300
C397        C  0.21135216  0.29098043  0.30251886    -0.17700
C398        C  0.21986253  0.35510205  0.30027973    -0.17700
C399        C  0.22134339  0.35252764  0.19195403    -0.17700
C400        C  0.20890401  0.28902879  0.19500732    -0.17700
H401        H  0.22831864  0.30441033  0.35548028     0.15200
H402        H  0.23173152  0.33917845  0.35521400     0.15200
H403        H  0.22470530  0.30003204  0.13982875     0.15200
H404        H  0.23149641  0.33447035  0.13825503     0.15200
H405        H  0.19189678  0.26073595  0.28071806     0.13500
H406        H  0.19086411  0.25952529  0.22177561     0.13500
H407        H  0.21675096  0.38947531  0.27310926     0.13500
H408        H  0.21737880  0.38803829  0.21432681     0.13500
H409        H  0.20778709  0.32376147  0.27336292     0.26800
H410        H  0.20767214  0.32282438  0.22169817     0.26800
O411        O  0.22944323  0.46077472  0.46641045    -0.73800
O412        O  0.23031585  0.49530637  0.02758978    -0.73800
O413        O  0.23659193  0.45954814  0.02726077    -0.73900
O414        O  0.22198987  0.49608308  0.46738257    -0.74000
O415        O  0.19324050  0.49048197  0.47512136    -0.73900
O416        O  0.20764495  0.45478181  0.03442517    -0.73900
O417        O  0.20146222  0.49052891  0.03496950    -0.73800
O418        O  0.20075909  0.45497419  0.47357040    -0.73900
Ni419      Ni  0.23177487  0.47723951  0.99728101     1.25400
Ni420      Ni  0.20084349  0.47205391  0.00496506     1.25400
C421        C  0.21546963  0.45183187  0.45999469     0.88400
C422        C  0.21576311  0.49913491  0.04102734     0.88300
C423        C  0.22395266  0.45124048  0.04029935     0.88300
C424        C  0.20553437  0.49910291  0.46179527     0.88500
O425        O  0.15056792  0.95332287  0.48950687    -0.73800
O426        O  0.18450075  0.99023816  0.47658683    -0.73800
O427        O  0.18584927  0.95338246  0.48283630    -0.73900
O428        O  0.14936724  0.98907705  0.48419718    -0.74000
O429        O  0.15238785  0.99178033  0.02981285    -0.73900
O430        O  0.18934477  0.95720040  0.03067606    -0.73900
O431        O  0.18752720  0.99397817  0.02470173    -0.73800
O432        O  0.15371747  0.95597442  0.03474631    -0.73900
Ni433      Ni  0.16760529  0.97137277  0.48150827     1.25400
Ni434      Ni  0.17099266  0.97479206  0.03173114     1.25400
C435        C  0.14713571  0.94858427  0.01138673     0.88400
C436        C  0.19047475  0.99981674  0.99822845     0.88300
C437        C  0.19286073  0.94851037  0.00683597     0.88300
C438        C  0.14559626  0.99660691  0.00498120     0.88500
O439        O  0.01312325  0.09726866  0.02967602    -0.73800
O440        O  0.04560946  0.13640533  0.03596006    -0.73800
O441        O  0.00898498  0.13271195  0.03129015    -0.73900
O442        O  0.04875111  0.10115681  0.03477747    -0.74000
O443        O  0.05043870  0.10116014  0.48973715    -0.73900
O444        O  0.01235659  0.13510412  0.48742981    -0.73900
O445        O  0.04918216  0.13654953  0.49168381    -0.73800
O446        O  0.01450279  0.09962358  0.48506579    -0.73900
Ni447      Ni  0.02898641  0.11701956  0.03468134     1.25400
Ni448      Ni  0.03168470  0.11830118  0.48670012     1.25400
C449        C  0.00843488  0.09168996  0.00377706     0.88400
C450        C  0.05403421  0.14136543  0.01254652     0.88300
C451        C  0.00301111  0.13776967  0.00590009     0.88300
C452        C  0.05600196  0.09578565  0.01062599     0.88500
O453        O  0.00740079  0.84988043  0.48362686    -0.73800
O454        O  0.04512787  0.81630121  0.47688291    -0.73800
O455        O  0.00830350  0.81455644  0.47891265    -0.73900
O456        O  0.04342383  0.85160964  0.48250017    -0.74000
O457        O  0.04529550  0.84868771  0.02716418    -0.73900
O458        O  0.01064153  0.81156023  0.02575782    -0.73900
O459        O  0.04756485  0.81344589  0.02370271    -0.73800
O460        O  0.00917745  0.84729834  0.02840400    -0.73900
Ni461      Ni  0.02601296  0.83302917  0.47872819     1.25400
Ni462      Ni  0.02815663  0.83005012  0.02804757     1.25400
C463        C  0.00275572  0.85357093  0.00403417     0.88400
C464        C  0.05407373  0.80979422  0.99792867     0.88300
C465        C  0.00294622  0.80736018  0.00121170     0.88300
C466        C  0.05111925  0.85504737  0.00261703     0.88500
O467        O  0.90442368  0.95596357  0.01813616    -0.73800
O468        O  0.87031089  0.99355441  0.02284370    -0.73800
O469        O  0.86897128  0.95655627  0.01791033    -0.73900
O470        O  0.90591263  0.99182956  0.02250174    -0.74000
O471        O  0.90513224  0.99448531  0.47535437    -0.73900
O472        O  0.86840771  0.95946550  0.47361149    -0.73900
O473        O  0.86962546  0.99626068  0.47803279    -0.73800
O474        O  0.90389637  0.95834745  0.47201216    -0.73900
Ni475      Ni  0.88723582  0.97444648  0.02211597     1.25400
Ni476      Ni  0.88659364  0.97724252  0.47298376     1.25400
C477        C  0.90928299  0.94983186  0.99278024     0.88400
C478        C  0.86606828  0.00223598  0.99929266     0.88300
C479        C  0.86399172  0.95103988  0.99206570     0.88300
C480        C  0.91242666  0.99799247  0.99823340     0.88500
C481        C  0.97684982  0.89744860  0.52125432    -0.04900
C482        C  0.96150757  0.89289263  0.99804866     0.09300
C483        C  0.95936151  0.87625672  0.98410791    -0.02200
C484        C  0.97244431  0.86304306  0.98757321    -0.00500
C485        C  0.98798683  0.86654656  0.00439625    -0.04100
C486        C  0.98969244  0.88392096  0.52435520     0.02900
C487        C  0.94731164  0.90667232  0.99527419     0.09700
C488        C  0.94381743  0.87287336  0.96573366     0.35600
C489        C  0.00606899  0.88737592  0.54050364     0.39100
C490        C  0.94649602  0.91775721  0.97001479    -0.04500
C491        C  0.93328898  0.93104456  0.96790028     0.02700
C492        C  0.92142986  0.93402982  0.99202343    -0.04100
C493        C  0.92154589  0.92185846  0.01627816    -0.00300
C494        C  0.93444842  0.90833030  0.01782045    -0.02900
C495        C  0.95946893  0.91558822  0.94637211     0.36400
C496        C  0.90793349  0.92256190  0.03917739     0.40000
C497        C  0.93186720  0.94119912  0.94054898     0.39100
C498        C  0.93451860  0.89598203  0.04266677     0.36100
C499        C  0.98003916  0.91488405  0.53391317     0.36700
C500        C  0.96974980  0.84572226  0.97411249     0.40000
N501        N  0.93065062  0.94899385  0.91839735    -0.38100
N502        N  0.96987029  0.91384967  0.92760375    -0.39700
N503        N  0.89707950  0.92303730  0.05742789    -0.37400
N504        N  0.93459886  0.88608467  0.06238855    -0.39800
N505        N  0.93151400  0.87022225  0.95083389    -0.39600
N506        N  0.96744803  0.83194249  0.96336530    -0.37200
N507        N  0.01911462  0.89008796  0.55346812    -0.38300
N508        N  0.98260032  0.92884231  0.54382942    -0.39900
C509        C  0.98373202  0.04841150  0.01812020    -0.04900
C510        C  0.96878778  0.05044362  0.99942080     0.09300
C511        C  0.96449442  0.07035190  0.48755815    -0.02200
C512        C  0.97872795  0.08250088  0.48811987    -0.00500
C513        C  0.99528662  0.07704656  0.00118380    -0.04100
C514        C  0.99696234  0.06163126  0.01895761     0.02900
C515        C  0.95439208  0.03682255  0.99954089     0.09700
C516        C  0.94866595  0.07411958  0.47011818     0.35600
C517        C  0.01248724  0.05899822  0.03759464     0.39100
C518        C  0.93842723  0.04009663  0.01510023    -0.04500
C519        C  0.92471879  0.02734346  0.01491762     0.02700
C520        C  0.92700620  0.01117478  0.99937908    -0.04100
C521        C  0.93913436  0.01399826  0.48010981    -0.00300
C522        C  0.95206000  0.02749114  0.48073565    -0.02900
C523        C  0.93609966  0.05670401  0.03105474     0.36400
C524        C  0.94077801  0.99995193  0.45822063     0.40000
C525        C  0.90800419  0.03121697  0.02965943     0.39100
C526        C  0.96639938  0.02754337  0.45909374     0.36100
C527        C  0.98541966  0.03270161  0.03663187     0.36700
C528        C  0.97748945  0.09865096  0.47063191     0.40000
N529        N  0.89467876  0.03441782  0.04135393    -0.38100
N530        N  0.93429892  0.07000249  0.04364578    -0.39700
N531        N  0.94236601  0.98903728  0.44027537    -0.37400
N532        N  0.97776596  0.02773497  0.44173839    -0.39800
N533        N  0.93596419  0.07709078  0.45638366    -0.39600
N534        N  0.97644074  0.11147427  0.45654881    -0.37200
N535        N  0.02476564  0.05648298  0.05256580    -0.38300
N536        N  0.98679379  0.02013148  0.05127014    -0.39900
C537        C  0.12581557  0.04186243  0.02021711    -0.04900
C538        C  0.10894658  0.04014753  0.00692456     0.09300
C539        C  0.10498963  0.02552857  0.49634813    -0.02200
C540        C  0.11642783  0.01074413  0.49568911    -0.00500
C541        C  0.13296026  0.01155265  0.00505173    -0.04100
C542        C  0.13782692  0.02761673  0.01929205     0.02900
C543        C  0.09613724  0.05508817  0.00886154     0.09700
C544        C  0.08779127  0.02474335  0.48168459     0.35600
C545        C  0.15524012  0.02964805  0.03290604     0.39100
C546        C  0.09788648  0.06997740  0.49306666    -0.04500
C547        C  0.08472397  0.08326588  0.49378204     0.02700
C548        C  0.07104417  0.08289425  0.01176842    -0.04100
C549        C  0.07277790  0.07072121  0.03580912    -0.00300
C550        C  0.08497781  0.05660553  0.03386826    -0.02900
C551        C  0.11200855  0.07059994  0.47107979     0.36400
C552        C  0.06253380  0.07272639  0.06299573     0.40000
C553        C  0.08548967  0.09761276  0.47224695     0.39100
C554        C  0.08608185  0.04352818  0.05758443     0.36100
C555        C  0.13071606  0.05829156  0.03507307     0.36700
C556        C  0.11061169  0.99435018  0.48174394     0.40000
N557        N  0.08619527  0.10906431  0.45510380    -0.38100
N558        N  0.12345386  0.07114108  0.45389123    -0.39700
N559        N  0.05471976  0.07438932  0.08504876    -0.37400
N560        N  0.08698903  0.03307374  0.07642197    -0.39800
N561        N  0.07407538  0.02420963  0.46996708    -0.39600
N562        N  0.10592219  0.98123325  0.47081262    -0.37200
N563        N  0.16902709  0.03138644  0.04403108    -0.38300
N564        N  0.13459982  0.07137572  0.04695956    -0.39900
C565        C  0.12212129  0.90537450  0.50160965    -0.04900
C566        C  0.10737722  0.90758339  0.01132374     0.09300
C567        C  0.10493259  0.92292808  0.02900662    -0.02200
C568        C  0.11839441  0.93595406  0.03059697    -0.00500
C569        C  0.13416639  0.93385945  0.01390387    -0.04100
C570        C  0.13576139  0.91814229  0.50234941     0.02900
C571        C  0.09295764  0.89400557  0.00875416     0.09700
C572        C  0.08833915  0.92552338  0.04484802     0.35600
C573        C  0.15189561  0.91519025  0.48532067     0.39100
C574        C  0.09275141  0.87852705  0.53198823    -0.04500
C575        C  0.07920836  0.86579017  0.52850522     0.02700
C576        C  0.06572763  0.86827065  0.00373911    -0.04100
C577        C  0.06460710  0.88426528  0.98742825    -0.00300
C578        C  0.07839472  0.89690737  0.98943304    -0.02900
C579        C  0.10778311  0.87492730  0.55141918     0.36400
C580        C  0.04906520  0.88796890  0.96925797     0.40000
C581        C  0.08111991  0.84861001  0.54281769     0.39100
C582        C  0.07786358  0.91274586  0.97110477     0.36100
C583        C  0.12371615  0.88994117  0.48238468     0.36700
C584        C  0.11570867  0.95179782  0.04846124     0.40000
N585        N  0.08275535  0.83489689  0.55410533    -0.38100
N586        N  0.11976882  0.87206017  0.56691941    -0.39700
N587        N  0.03661799  0.89092223  0.95486607    -0.37400
N588        N  0.07760229  0.92531220  0.95629404    -0.39800
N589        N  0.07503735  0.92766627  0.05727498    -0.39600
N590        N  0.11363827  0.96440948  0.06281652    -0.37200
N591        N  0.16479078  0.91289519  0.47181402    -0.38300
N592        N  0.12490069  0.87764794  0.46700573    -0.39900
C593        C  0.20392004  0.39134405  0.35389670    -0.04900
C594        C  0.21974851  0.39583905  0.36921824     0.09300
C595        C  0.23579944  0.38724955  0.36121429    -0.02200
C596        C  0.23599645  0.37450176  0.33798791    -0.00500
C597        C  0.21999749  0.36936368  0.32383177    -0.04100
C598        C  0.20397554  0.37794507  0.33181513     0.02900
C599        C  0.21940631  0.40994867  0.39316817     0.09700
C600        C  0.25211344  0.39143464  0.37700366     0.35600
C601        C  0.18753447  0.37318887  0.31685010     0.39100
C602        C  0.21025682  0.40698729  0.42022253    -0.04500
C603        C  0.20814883  0.42086796  0.44123798     0.02700
C604        C  0.21657673  0.43748342  0.43675306    -0.04100
C605        C  0.22677014  0.43998088  0.41045358    -0.00300
C606        C  0.22750450  0.42659683  0.38832597    -0.02900
C607        C  0.20339769  0.38943130  0.42676981     0.36400
C608        C  0.23636864  0.45642374  0.40563517     0.40000
C609        C  0.19787609  0.41766817  0.46806690     0.39100
C610        C  0.23637938  0.43008466  0.36022526     0.36100
C611        C  0.18758899  0.40081642  0.36047074     0.36700
C612        C  0.25269525  0.36684015  0.32823655     0.40000
N613        N  0.18969580  0.41508403  0.48946765    -0.38100
N614        N  0.19809285  0.37537772  0.43209943    -0.39700
N615        N  0.24408835  0.46949413  0.40170207    -0.37400
N616        N  0.24345001  0.43283439  0.33779719    -0.39800
N617        N  0.26515670  0.39478167  0.38954249    -0.39600
N618        N  0.26598383  0.36073692  0.32024731    -0.37200
N619        N  0.17443649  0.36947549  0.30477846    -0.38300
N620        N  0.17461495  0.40844562  0.36578063    -0.39900
C621        C  0.23238292  0.40535611  0.07256213    -0.04900
C622        C  0.22868289  0.40834780  0.10303143     0.09300
C623        C  0.22590974  0.42585209  0.11326849    -0.02200
C624        C  0.22604351  0.44014456  0.09296175    -0.00500
C625        C  0.22797558  0.43696279  0.06213504    -0.04100
C626        C  0.23209296  0.41965069  0.05215902     0.02900
C627        C  0.22735886  0.39309467  0.12437642     0.09700
C628        C  0.22245694  0.42907942  0.14463801     0.35600
C629        C  0.23638491  0.41660509  0.02105745     0.39100
C630        C  0.24173798  0.38883491  0.14337032    -0.04500
C631        C  0.24001204  0.37517812  0.16471386     0.02700
C632        C  0.22381608  0.36582664  0.16744140    -0.04100
C633        C  0.20959776  0.36978917  0.14789223    -0.00300
C634        C  0.21136623  0.38337887  0.12646167    -0.02900
C635        C  0.25818297  0.39877383  0.14128952     0.36400
C636        C  0.19298165  0.36015186  0.15035919     0.40000
C637        C  0.25482851  0.37081789  0.18412863     0.39100
C638        C  0.19655019  0.38775195  0.10704662     0.36100
C639        C  0.23617970  0.38751119  0.06223299     0.36700
C640        C  0.22544196  0.45818820  0.10401239     0.40000
N641        N  0.26661054  0.36730711  0.19969293    -0.38100
N642        N  0.27126869  0.40677990  0.13969408    -0.39700
N643        N  0.17976172  0.35239756  0.15232118    -0.37400
N644        N  0.18475696  0.39129814  0.09152965    -0.39800
N645        N  0.21962084  0.43158843  0.16965998    -0.39600
N646        N  0.22570340  0.47250288  0.11334086    -0.37200
N647        N  0.24017010  0.41411741  0.99638975    -0.38300
N648        N  0.23919037  0.37324240  0.05408861    -0.39900
C649        C  0.10090758  0.15318276  0.04026975    -0.04900
C650        C  0.10821369  0.16133004  0.01485984     0.09300
C651        C  0.09696682  0.16565638  0.49406250    -0.02200
C652        C  0.07878712  0.16097873  0.49560190    -0.00500
C653        C  0.07168866  0.15080090  0.01530583    -0.04100
C654        C  0.08289364  0.14776433  0.04051995     0.02900
C655        C  0.12775155  0.16574832  0.01379184     0.09700
C656        C  0.10382767  0.17440040  0.46767213     0.35600
C657        C  0.07646333  0.13818606  0.06639333     0.39100
C658        C  0.14060408  0.15206533  0.50821996    -0.04500
C659        C  0.15882618  0.15627048  0.50486246     0.02700
C660        C  0.16431267  0.17464409  0.00757684    -0.04100
C661        C  0.15152783  0.18790454  0.01422578    -0.00300
C662        C  0.13344414  0.18341425  0.01782976    -0.02900
C663        C  0.13450098  0.13404636  0.50324013     0.36400
C664        C  0.15688125  0.20636281  0.01653048     0.40000
C665        C  0.17133262  0.14274169  0.49547748     0.39100
C666        C  0.12058891  0.19702017  0.02552188     0.36100
C667        C  0.11214595  0.15014589  0.06613513     0.36700
C668        C  0.06683935  0.16660314  0.47196859     0.40000
N669        N  0.18129722  0.13198760  0.48772174    -0.38100
N670        N  0.12953576  0.11969290  0.49933017    -0.39700
N671        N  0.16108381  0.22109843  0.01835960    -0.37400
N672        N  0.11031617  0.20783770  0.03176644    -0.39800
N673        N  0.10935824  0.18126976  0.44656416    -0.39600
N674        N  0.05730011  0.17116110  0.45317701    -0.37200
N675        N  0.07147743  0.13052353  0.08711466    -0.38300
N676        N  0.12116741  0.14779834  0.08670696    -0.39900
C677        C  0.19090112  0.22794396  0.39967708    -0.04900
C678        C  0.20764635  0.23512156  0.39272459     0.09300
C679        C  0.22251872  0.22992504  0.40965845    -0.02200
C680        C  0.22077665  0.21721129  0.43265110    -0.00500
C681        C  0.20386988  0.20994003  0.44043555    -0.04100
C682        C  0.18873745  0.21708908  0.42507569     0.02900
C683        C  0.20916631  0.24964517  0.36986421     0.09700
C684        C  0.23961018  0.23833595  0.40433976     0.35600
C685        C  0.17096485  0.21638528  0.43745610     0.39100
C686        C  0.20036449  0.26602859  0.37447582    -0.04500
C687        C  0.20027594  0.27905689  0.35194686     0.02700
C688        C  0.21096494  0.27691084  0.32628557    -0.04100
C689        C  0.22106258  0.26115063  0.32297099    -0.00300
C690        C  0.21932332  0.24719502  0.34371189    -0.02900
C691        C  0.19160728  0.26961727  0.40267123     0.36400
C692        C  0.23345724  0.25934444  0.29842179     0.40000
C693        C  0.18887377  0.29449403  0.35497261     0.39100
C694        C  0.22782175  0.23024749  0.33791357     0.36100
C695        C  0.17557295  0.23260950  0.38148193     0.36700
C696        C  0.23651727  0.21311056  0.44977173     0.40000
N697        N  0.17975960  0.30679580  0.35732731    -0.38100
N698        N  0.18473044  0.27248838  0.42524302    -0.39700
N699        N  0.24345976  0.25789938  0.27900097    -0.37400
N700        N  0.23459620  0.21673336  0.33323827    -0.39800
N701        N  0.25322926  0.24500633  0.40012928    -0.39600
N702        N  0.24945843  0.21031826  0.46283268    -0.37200
N703        N  0.15666239  0.21628417  0.44695462    -0.38300
N704        N  0.16341978  0.23641365  0.36694879    -0.39900
C705        C  0.21811423  0.24657009  0.15051461    -0.04900
C706        C  0.20485293  0.24740341  0.12820364     0.09300
C707        C  0.19227242  0.26133589  0.12889634    -0.02200
C708        C  0.19329889  0.27462573  0.15113438    -0.00500
C709        C  0.20716598  0.27434353  0.17244241    -0.04100
C710        C  0.21942335  0.26009439  0.17227083     0.02900
C711        C  0.20507583  0.23450136  0.10254048     0.09700
C712        C  0.17846014  0.26214602  0.10632603     0.35600
C713        C  0.23369515  0.25957474  0.19403203     0.39100
C714        C  0.19290879  0.22031451  0.10099377    -0.04500
C715        C  0.19263062  0.20883633  0.07586057     0.02700
C716        C  0.20448469  0.21159625  0.05158651    -0.04100
C717        C  0.21753572  0.22518509  0.05461143    -0.00300
C718        C  0.21757452  0.23666363  0.07953893    -0.02900
C719        C  0.18049544  0.21770427  0.12532202     0.36400
C720        C  0.23145382  0.22738553  0.03263809     0.40000
C721        C  0.17992211  0.19442618  0.07557761     0.39100
C722        C  0.23038899  0.25105271  0.08134400     0.36100
C723        C  0.23053805  0.23183553  0.15081781     0.36700
C724        C  0.18004231  0.28858725  0.15224772     0.40000
N725        N  0.16976055  0.18291726  0.07658611    -0.38100
N726        N  0.17058686  0.21570265  0.14474177    -0.39700
N727        N  0.24277247  0.22975300  0.01569666    -0.37400
N728        N  0.24058039  0.26251863  0.08289424    -0.39800
N729        N  0.16743476  0.26271695  0.08830063    -0.39600
N730        N  0.16944854  0.29971440  0.15331009    -0.37200
N731        N  0.24514425  0.25912509  0.21129336    -0.38300
N732        N  0.24040693  0.22004451  0.15106789    -0.39900
C733        C  0.20763907  0.52571915  0.11305828    -0.04900
C734        C  0.21690350  0.54169131  0.10728363     0.09300
C735        C  0.22526416  0.54382185  0.07929831    -0.02200
C736        C  0.22498736  0.52994434  0.05792243    -0.00500
C737        C  0.21562707  0.51395183  0.06360824    -0.04100
C738        C  0.20637630  0.51228978  0.09098748     0.02900
C739        C  0.21699588  0.55651130  0.13018868     0.09700
C740        C  0.23378618  0.56053494  0.07212349     0.35600
C741        C  0.19545527  0.49681726  0.09670686     0.39100
C742        C  0.23282045  0.56142555  0.14527154    -0.04500
C743        C  0.23251499  0.57474981  0.16762927     0.02700
C744        C  0.21635139  0.58302057  0.17577551    -0.04100
C745        C  0.20059857  0.57827831  0.16045279    -0.00300
C746        C  0.20101277  0.56547023  0.13733563    -0.02900
C747        C  0.24946997  0.55281369  0.13778224     0.36400
C748        C  0.18392329  0.58669359  0.16837468     0.40000
C749        C  0.24887175  0.58001814  0.18235518     0.39100
C750        C  0.18500598  0.56171995  0.12036488     0.36100
C751        C  0.19946008  0.52304882  0.14200035     0.36700
C752        C  0.23358696  0.53260979  0.02931774     0.40000
N753        N  0.26188891  0.58429748  0.19414267    -0.38100
N754        N  0.26281738  0.54610801  0.13162382    -0.39700
N755        N  0.17062679  0.59347704  0.17458236    -0.37400
N756        N  0.17231475  0.55868834  0.10663774    -0.39800
N757        N  0.24058646  0.57386455  0.06635789    -0.39600
N758        N  0.24037231  0.53473187  0.00644593    -0.37200
N759        N  0.18661984  0.48456552  0.10138817    -0.38300
N760        N  0.19295963  0.52099152  0.16511780    -0.39900
C761        C  0.20313095  0.52331622  0.38810645    -0.04900
C762        C  0.20017304  0.54092720  0.39760742     0.09300
C763        C  0.19633832  0.54434370  0.42792425    -0.02200
C764        C  0.19670795  0.53034439  0.44890167    -0.00500
C765        C  0.20094481  0.51294559  0.43957682    -0.04100
C766        C  0.20281383  0.50931365  0.40890516     0.02900
C767        C  0.20201575  0.55584509  0.37576572     0.09700
C768        C  0.19270276  0.56234066  0.43763139     0.35600
C769        C  0.20329678  0.49110917  0.39858026     0.39100
C770        C  0.18755719  0.56094586  0.35754063    -0.04500
C771        C  0.18984172  0.57411254  0.33544771     0.02700
C772        C  0.20654636  0.58238645  0.33174720    -0.04100
C773        C  0.22088041  0.57750099  0.35040237    -0.00300
C774        C  0.21867311  0.56415201  0.37209558    -0.02900
C775        C  0.17040944  0.55248997  0.36139556     0.36400
C776        C  0.23796675  0.58615603  0.34703291     0.40000
C777        C  0.17505133  0.57915525  0.31646593     0.39100
C778        C  0.23366045  0.55859251  0.39023465     0.36100
C779        C  0.20744595  0.51973894  0.35715741     0.36700
C780        C  0.19254595  0.53377013  0.47995152     0.40000
N781        N  0.16326095  0.58315851  0.30125904    -0.38100
N782        N  0.15673067  0.54573041  0.36452950    -0.39700
N783        N  0.25155852  0.59315040  0.34434945    -0.37400
N784        N  0.24558656  0.55401904  0.40466222    -0.39800
N785        N  0.18985308  0.57671654  0.44539947    -0.39600
N786        N  0.19078944  0.53435260  0.00491933    -0.37200
N787        N  0.20291564  0.47664286  0.38994028    -0.38300
N788        N  0.21115884  0.51698594  0.33253855    -0.39900
C789        C  0.10222147  0.80842097  0.47582218    -0.04900
C790        C  0.10942470  0.79370328  0.99618320     0.09300
C791        C  0.09745982  0.78517836  0.01572308    -0.02200
C792        C  0.07921187  0.78983013  0.01578860    -0.00500
C793        C  0.07259402  0.80254664  0.99536418    -0.04100
C794        C  0.08399298  0.81296769  0.47659128     0.02900
C795        C  0.12892754  0.78935695  0.99709113     0.09700
C796        C  0.10404888  0.77164377  0.03588559     0.35600
C797        C  0.07772516  0.82689631  0.45682205     0.39100
C798        C  0.14006898  0.79716527  0.01879337    -0.04500
C799        C  0.15814159  0.79215389  0.02085973     0.02700
C800        C  0.16517765  0.77894673  0.00167281    -0.04100
C801        C  0.15251520  0.77111060  0.47962156    -0.00300
C802        C  0.13474294  0.77712284  0.47718554    -0.02900
C803        C  0.13276206  0.81003005  0.03951558     0.36400
C804        C  0.15818498  0.75597400  0.46209220     0.40000
C805        C  0.16952512  0.80051989  0.04294966     0.39100
C806        C  0.12254158  0.76856391  0.45660822     0.36100
C807        C  0.11404641  0.81708845  0.45485487     0.36700
C808        C  0.06726439  0.78135934  0.03670712     0.40000
N809        N  0.17865575  0.80720557  0.06047812    -0.38100
N810        N  0.12687404  0.82021845  0.05612890    -0.39700
N811        N  0.16223035  0.74383241  0.44780214    -0.37400
N812        N  0.11274236  0.76182125  0.44019811    -0.39800
N813        N  0.10941552  0.76080618  0.05181333    -0.39600
N814        N  0.05776548  0.77459759  0.05348156    -0.37200
N815        N  0.07289969  0.83802206  0.44095972    -0.38300
N816        N  0.12344773  0.82405437  0.43816103    -0.39900
C817        C  0.19943966  0.70091630  0.16245431    -0.04900
C818        C  0.21222776  0.70388170  0.14002138     0.09300
C819        C  0.22785722  0.69348345  0.13935926    -0.02200
C820        C  0.23045678  0.67988197  0.16057864    -0.00500
C821        C  0.21730096  0.67644942  0.18225292    -0.04100
C822        C  0.20181386  0.68707452  0.18316340     0.02900
C823        C  0.20888026  0.71755963  0.11643715     0.09700
C824        C  0.24117161  0.69672736  0.11666542     0.35600
C825        C  0.18818111  0.68357105  0.20524217     0.39100
C826        C  0.21720598  0.73427753  0.11784556    -0.04500
C827        C  0.21478263  0.74678936  0.09459443     0.02700
C828        C  0.20387574  0.74250438  0.06951663    -0.04100
C829        C  0.19276027  0.72728351  0.07218658    -0.00300
C830        C  0.19621788  0.71431024  0.09397224    -0.02900
C831        C  0.22751649  0.73883800  0.14415842     0.36400
C832        C  0.17656426  0.72578058  0.05473425     0.40000
C833        C  0.22149810  0.76458090  0.09926676     0.39100
C834        C  0.18656049  0.69763386  0.09341204     0.36100
C835        C  0.18384784  0.71220426  0.16424597     0.36700
C836        C  0.24660768  0.66936996  0.16011795     0.40000
N837        N  0.22685525  0.77874459  0.10371454    -0.38100
N838        N  0.23544341  0.74242172  0.16548388    -0.39700
N839        N  0.16321751  0.72501049  0.04187944    -0.37400
N840        N  0.17888036  0.68433259  0.09293487    -0.39800
N841        N  0.25179575  0.69939163  0.09858199    -0.39600
N842        N  0.25948552  0.66095827  0.15975968    -0.37200
N843        N  0.17737889  0.68072795  0.22294435    -0.38300
N844        N  0.17144528  0.72125852  0.16568046    -0.39900
C845        C  0.20230425  0.70722122  0.43296156    -0.04900
C846        C  0.20832324  0.71418185  0.40585038     0.09300
C847        C  0.21055776  0.73263056  0.40315485    -0.02200
C848        C  0.20763947  0.74409479  0.42794537    -0.00500
C849        C  0.20273520  0.73712871  0.45653705    -0.04100
C850        C  0.19881028  0.71847418  0.45752067     0.02900
C851        C  0.21115848  0.70185894  0.37977648     0.09700
C852        C  0.21579295  0.73981519  0.37444377     0.35600
C853        C  0.18972667  0.71032381  0.48243010     0.39100
C854        C  0.19709519  0.69839442  0.35965628    -0.04500
C855        C  0.19887521  0.68509227  0.33758876     0.02700
C856        C  0.21474238  0.67511807  0.33538758    -0.04100
C857        C  0.22894435  0.67882454  0.35511213    -0.00300
C858        C  0.22717167  0.69217025  0.37716125    -0.02900
C859        C  0.18063074  0.70829880  0.36214570     0.36400
C860        C  0.24530098  0.66874075  0.35288916     0.40000
C861        C  0.18422399  0.68134324  0.31746670     0.39100
C862        C  0.24170904  0.69581688  0.39755542     0.36100
C863        C  0.19940359  0.68818100  0.43536991     0.36700
C864        C  0.20879480  0.76292480  0.42221291     0.40000
N865        N  0.17256576  0.67826192  0.30138684    -0.38100
N866        N  0.16751829  0.71625030  0.36415643    -0.39700
N867        N  0.25834777  0.66066046  0.35114335    -0.37400
N868        N  0.25326363  0.69881230  0.41389287    -0.39800
N869        N  0.21990789  0.74552379  0.35151926    -0.39600
N870        N  0.20948401  0.77778769  0.41575585    -0.37200
N871        N  0.18196230  0.70345984  0.00014156    -0.38300
N872        N  0.19716938  0.67302785  0.43722965    -0.39900
C873        C  0.47750477  0.13685700  0.11011729    -0.04900
C874        C  0.46511613  0.15092346  0.11202312     0.09300
C875        C  0.46700814  0.16549135  0.09257408    -0.02200
C876        C  0.48138975  0.16638142  0.07228984    -0.00500
C877        C  0.49325146  0.15174462  0.06865181    -0.04100
C878        C  0.49098320  0.13688118  0.08795722     0.02900
C879        C  0.44987262  0.15036048  0.13410435     0.09700
C880        C  0.45370568  0.17946275  0.09282240     0.35600
C881        C  0.50249229  0.12148512  0.08561076     0.39100
C882        C  0.44894889  0.16268352  0.15792553    -0.04500
C883        C  0.43421829  0.16271183  0.17753807     0.02700
C884        C  0.42083365  0.14954673  0.17518530    -0.04100
C885        C  0.42183103  0.13714126  0.15150017    -0.00300
C886        C  0.43590870  0.13794558  0.13056553    -0.02900
C887        C  0.46326526  0.17530021  0.16246810     0.36400
C888        C  0.40848784  0.12336433  0.14882235     0.40000
C889        C  0.43272182  0.17646624  0.20009116     0.39100
C890        C  0.43584878  0.12621709  0.10489272     0.36100
C891        C  0.47643127  0.12231535  0.13124535     0.36700
C892        C  0.48360394  0.18259049  0.05527677     0.40000
N893        N  0.43143489  0.18748489  0.21797561    -0.38100
N894        N  0.47465771  0.18539696  0.16609889    -0.39700
N895        N  0.39780758  0.11239202  0.14660876    -0.37400
N896        N  0.43584022  0.11697897  0.08424327    -0.39800
N897        N  0.44301374  0.19051302  0.09300047    -0.39600
N898        N  0.48529622  0.19563917  0.04198319    -0.37200
N899        N  0.51151064  0.10907501  0.08379426    -0.38300
N900        N  0.47560093  0.11074944  0.14815224    -0.39900
C901        C  0.46047247  0.15042019  0.42546755    -0.04900
C902        C  0.46481231  0.14381348  0.39695056     0.09300
C903        C  0.48221098  0.13768006  0.39124452    -0.02200
C904        C  0.49546800  0.13906514  0.41350196    -0.00500
C905        C  0.49129401  0.14645327  0.44162823    -0.04100
C906        C  0.47360400  0.15145268  0.44788096     0.02900
C907        C  0.45108914  0.14388689  0.37274790     0.09700
C908        C  0.48644672  0.13011118  0.36236340     0.35600
C909        C  0.46868101  0.15684165  0.47777565     0.39100
C910        C  0.44941449  0.15881927  0.35396670    -0.04500
C911        C  0.43588797  0.15941506  0.33217340     0.02700
C912        C  0.42378260  0.14519682  0.32936702    -0.04100
C913        C  0.42574469  0.13005805  0.34761171    -0.00300
C914        C  0.43935535  0.12941855  0.36930733    -0.02900
C915        C  0.46149330  0.17367795  0.35741804     0.36400
C916        C  0.41392407  0.11504444  0.34361195     0.40000
C917        C  0.43443927  0.17460195  0.31246484     0.39100
C918        C  0.44125928  0.11395441  0.38826035     0.36100
C919        C  0.44248793  0.15634850  0.43157307     0.36700
C920        C  0.51345909  0.13321230  0.40727033     0.40000
N921        N  0.43332807  0.18660763  0.29649193    -0.38100
N922        N  0.47112064  0.18553633  0.36025649    -0.39700
N923        N  0.40452394  0.10305490  0.34021730    -0.37400
N924        N  0.44280319  0.10162063  0.40340766    -0.39800
N925        N  0.48977038  0.12400281  0.33933408    -0.39600
N926        N  0.52780056  0.12848856  0.40233459    -0.37200
N927        N  0.46668533  0.16801972  0.99836042    -0.38300
N928        N  0.42813959  0.16110715  0.43633642    -0.39900
C929        C  0.20466045  0.08493699  0.01827533    -0.04900
C930        C  0.20966772  0.07503625  0.99290029     0.09300
C931        C  0.21732101  0.08344697  0.46833696    -0.02200
C932        C  0.22128393  0.10182472  0.47029982    -0.00500
C933        C  0.21924738  0.11150384  0.99779166    -0.04100
C934        C  0.20940837  0.10301890  0.02074729     0.02900
C935        C  0.20616597  0.05528663  0.99181307     0.09700
C936        C  0.22148267  0.07375185  0.44128860     0.35600
C937        C  0.20372981  0.11308542  0.04668900     0.39100
C938        C  0.19206226  0.04793012  0.47410152    -0.04500
C939        C  0.18768888  0.02966184  0.47492210     0.02700
C940        C  0.19733502  0.01838534  0.99390804    -0.04100
C941        C  0.21141321  0.02520400  0.01147927    -0.00300
C942        C  0.21605399  0.04343297  0.00990165    -0.02900
C943        C  0.18158064  0.06001684  0.45599234     0.36400
C944        C  0.22100250  0.01351986  0.03152674     0.40000
C945        C  0.17268198  0.02351943  0.45731729     0.39100
C946        C  0.23089192  0.05010486  0.02729650     0.36100
C947        C  0.19463161  0.07647346  0.04191772     0.36700
C948        C  0.22551139  0.11151112  0.44341247     0.40000
N949        N  0.16068336  0.01889979  0.44308613    -0.38100
N950        N  0.17328434  0.06969566  0.44154216    -0.39700
N951        N  0.22855349  0.00419754  0.04768655    -0.37400
N952        N  0.24274963  0.05544624  0.04113292    -0.39800
N953        N  0.22483872  0.06600670  0.41970662    -0.39600
N954        N  0.22841753  0.11905591  0.42147559    -0.37200
N955        N  0.19918420  0.12114230  0.06731620    -0.38300
N956        N  0.18656649  0.06974290  0.06071797    -0.39900
C957        C  0.30591781  0.16251732  0.14712786    -0.04900
C958        C  0.29766806  0.14591661  0.14219072     0.09300
C959        C  0.30355011  0.13095030  0.15842727    -0.02200
C960        C  0.31853475  0.13221612  0.17726382    -0.00500
C961        C  0.32674086  0.14882679  0.18238308    -0.04100
C962        C  0.31996659  0.16407981  0.16796067     0.02900
C963        C  0.28407682  0.14382460  0.11779874     0.09700
C964        C  0.29405375  0.11426274  0.15591857     0.35600
C965        C  0.32743221  0.18137418  0.17461844     0.39100
C966        C  0.28845394  0.13408075  0.09200381    -0.04500
C967        C  0.27617788  0.13261167  0.06843545     0.02700
C968        C  0.26037119  0.14308790  0.06819382    -0.04100
C969        C  0.25488106  0.15053749  0.09583842    -0.00300
C970        C  0.26682333  0.15108937  0.12038031    -0.02900
C971        C  0.30583084  0.12581598  0.08930817     0.36400
C972        C  0.23647015  0.15540258  0.10062019     0.40000
C973        C  0.27969974  0.11971918  0.04501426     0.39100
C974        C  0.26126467  0.15874106  0.14856492     0.36100
C975        C  0.30017247  0.17791620  0.13028292     0.36700
C976        C  0.32545194  0.11642714  0.19173085     0.40000
N977        N  0.28246690  0.10937766  0.02647422    -0.38100
N978        N  0.31967506  0.11923165  0.08716197    -0.39700
N979        N  0.22171511  0.15900490  0.10477744    -0.37400
N980        N  0.25681565  0.16477768  0.17110509    -0.39800
N981        N  0.28640936  0.10097928  0.15412552    -0.39600
N982        N  0.33102755  0.10389626  0.20337036    -0.37200
N983        N  0.33337352  0.19518252  0.17996696    -0.38300
N984        N  0.29554442  0.19014781  0.11673494    -0.39900
C985        C  0.28032754  0.13579946  0.41246912    -0.04900
C986        C  0.29001387  0.15165904  0.40765154     0.09300
C987        C  0.28745598  0.16598180  0.42769918    -0.02200
C988        C  0.27517533  0.16456309  0.45151722    -0.00500
C989        C  0.26552203  0.14865026  0.45623153    -0.04100
C990        C  0.26955023  0.13385904  0.43807343     0.02900
C991        C  0.30439789  0.15239846  0.38395235     0.09700
C992        C  0.29825864  0.18184150  0.42506057     0.35600
C993        C  0.26592748  0.11612846  0.44892900     0.39100
C994        C  0.30370613  0.16493645  0.36045752    -0.04500
C995        C  0.31755214  0.16580122  0.33910532     0.02700
C996        C  0.33124848  0.15286199  0.33875651    -0.04100
C997        C  0.33180479  0.14018600  0.36204910    -0.00300
C998        C  0.31907215  0.14059206  0.38523926    -0.02900
C999        C  0.28857409  0.17677678  0.35781820     0.36400
C1000       C  0.34532460  0.12643969  0.36200483     0.40000
C1001       C  0.31780351  0.18016992  0.31760695     0.39100
C1002       C  0.32124839  0.12892107  0.41072720     0.36100
C1003       C  0.28203540  0.12107978  0.39176932     0.36700
C1004       C  0.27450767  0.17850945  0.47382769     0.40000
N1005       N  0.31809414  0.19167533  0.30053456    -0.38100
N1006       N  0.27651915  0.18625057  0.35569170    -0.39700
N1007       N  0.35613604  0.11550175  0.36200766    -0.37400
N1008       N  0.32295147  0.11962255  0.43106854    -0.39800
N1009       N  0.30681223  0.19453829  0.42297697    -0.39600
N1010       N  0.27455430  0.18911439  0.49253264    -0.37200
N1011       N  0.26383328  0.10188724  0.45790789    -0.38300
N1012       N  0.28341343  0.10932667  0.37528147    -0.39900
C1013       C  0.59663789  0.14897848  0.41673094    -0.04900
C1014       C  0.59257313  0.15634178  0.38848820     0.09300
C1015       C  0.57530836  0.16323507  0.38353427    -0.02200
C1016       C  0.56248216  0.16317250  0.40669955    -0.00500
C1017       C  0.56649242  0.15555095  0.43481857    -0.04100
C1018       C  0.58356795  0.14810035  0.43937105     0.02900
C1019       C  0.60647236  0.15648936  0.36405294     0.09700
C1020       C  0.57064064  0.17017150  0.35437891     0.35600
C1021       C  0.58789271  0.13976488  0.46763412     0.39100
C1022       C  0.61237105  0.14036032  0.35116103    -0.04500
C1023       C  0.62662644  0.14022270  0.33059289     0.02700
C1024       C  0.63455145  0.15627784  0.32133992    -0.04100
C1025       C  0.62795775  0.17248857  0.33275085    -0.00300
C1026       C  0.61427660  0.17259487  0.35443388    -0.02900
C1027       C  0.60352502  0.12388383  0.35871157     0.36400
C1028       C  0.63528308  0.18908475  0.32201849     0.40000
C1029       C  0.63322543  0.12352513  0.31891406     0.39100
C1030       C  0.60834474  0.18931160  0.36700966     0.36100
C1031       C  0.61448715  0.14258849  0.42273849     0.36700
C1032       C  0.54489249  0.17036584  0.40112086     0.40000
N1033       N  0.63856624  0.11023225  0.30956430    -0.38100
N1034       N  0.59637809  0.11075983  0.36461984    -0.39700
N1035       N  0.64110600  0.20229050  0.31323803    -0.37400
N1036       N  0.60353774  0.20267696  0.37687714    -0.39800
N1037       N  0.56694746  0.17574677  0.33112479    -0.39600
N1038       N  0.53085087  0.17607382  0.39662032    -0.37200
N1039       N  0.59131033  0.13302946  0.49012377    -0.38300
N1040       N  0.62874479  0.13753640  0.42750579    -0.39900
C1041       C  0.62467438  0.14603076  0.12817826    -0.04900
C1042       C  0.61425712  0.16140913  0.12388271     0.09300
C1043       C  0.61782913  0.17685662  0.14068060    -0.02200
C1044       C  0.63160285  0.17684295  0.16203818    -0.00500
C1045       C  0.64183131  0.16137946  0.16665526    -0.04100
C1046       C  0.63844415  0.14601595  0.14953867     0.02900
C1047       C  0.59891287  0.16100147  0.10270248     0.09700
C1048       C  0.60690060  0.19253425  0.13667539     0.35600
C1049       C  0.64865353  0.12998766  0.15490175     0.39100
C1050       C  0.58236665  0.15429575  0.11221097    -0.04500
C1051       C  0.56804440  0.15313869  0.09196924     0.02700
C1052       C  0.57019096  0.15879260  0.06217754    -0.04100
C1053       C  0.58648086  0.16636475  0.05311374    -0.00300
C1054       C  0.60089138  0.16724697  0.07325019    -0.02900
C1055       C  0.58011074  0.14873459  0.14295401     0.36400
C1056       C  0.58845133  0.17316951  0.02304083     0.40000
C1057       C  0.55087949  0.14688877  0.10217435     0.39100
C1058       C  0.61781904  0.17443692  0.06368497     0.36100
C1059       C  0.62081366  0.13006953  0.11124486     0.36700
C1060       C  0.63489698  0.19249409  0.18008722     0.40000
N1061       N  0.53717430  0.14210661  0.11061613    -0.38100
N1062       N  0.57838742  0.14437902  0.16753010    -0.39700
N1063       N  0.59137064  0.17927747  0.49711862    -0.37400
N1064       N  0.63134045  0.18017079  0.05610337    -0.39800
N1065       N  0.59812586  0.20501532  0.13351757    -0.39600
N1066       N  0.63753779  0.20490818  0.19466455    -0.37200
N1067       N  0.65677728  0.11721002  0.15936182    -0.38300
N1068       N  0.61764802  0.11732459  0.09781414    -0.39900
C1069       C  0.84768993  0.04895772  0.48490853    -0.04900
C1070       C  0.84656801  0.05659667  0.01057769     0.09300
C1071       C  0.84565699  0.04439484  0.03441813    -0.02200
C1072       C  0.85046649  0.02634796  0.03017510    -0.00500
C1073       C  0.85706147  0.02025337  0.00214049    -0.04100
C1074       C  0.85239016  0.03086422  0.48160622     0.02900
C1075       C  0.84111408  0.07581039  0.01446699     0.09700
C1076       C  0.83965157  0.05041181  0.06347827     0.35600
C1077       C  0.85311619  0.02352908  0.45169888     0.39100
C1078       C  0.82340363  0.08049090  0.52048049    -0.04500
C1079       C  0.81798153  0.09839302  0.51980615     0.02700
C1080       C  0.82984730  0.11192461  0.01149398    -0.04100
C1081       C  0.84811219  0.10766326  0.00998171    -0.00300
C1082       C  0.85374686  0.08970152  0.01193411    -0.02900
C1083       C  0.81027944  0.06653576  0.52387631     0.36400
C1084       C  0.86098434  0.12161405  0.00465825     0.40000
C1085       C  0.79958795  0.10273159  0.52599019     0.39100
C1086       C  0.87251611  0.08541526  0.01030095     0.36100
C1087       C  0.84356414  0.05961229  0.45882707     0.36700
C1088       C  0.84818859  0.01413211  0.05487615     0.40000
N1089       N  0.78493516  0.10591982  0.53161891    -0.38100
N1090       N  0.79985457  0.05534742  0.52631199    -0.39700
N1091       N  0.87123405  0.13276142  0.00030875    -0.37400
N1092       N  0.88749352  0.08197013  0.00900376    -0.39800
N1093       N  0.83466806  0.05512009  0.08658797    -0.39600
N1094       N  0.84626662  0.00443639  0.07461919    -0.37200
N1095       N  0.85360043  0.01781265  0.42772882    -0.38300
N1096       N  0.84010769  0.06816230  0.43818072    -0.39900
C1097       C  0.74730470  0.16866692  0.36573951    -0.04900
C1098       C  0.75431417  0.15210926  0.37448325     0.09300
C1099       C  0.74813905  0.13635898  0.36090905    -0.02200
C1100       C  0.73471325  0.13713711  0.33905217    -0.00500
C1101       C  0.72779939  0.15371416  0.33010457    -0.04100
C1102       C  0.73412992  0.16948369  0.34342977     0.02900
C1103       C  0.76737273  0.15109494  0.39947703     0.09700
C1104       C  0.75572775  0.11938772  0.36937590     0.35600
C1105       C  0.72694019  0.18650252  0.33428009     0.39100
C1106       C  0.76141869  0.14655167  0.42808436    -0.04500
C1107       C  0.77363589  0.14472059  0.45169008     0.02700
C1108       C  0.79187377  0.14963765  0.44790406    -0.04100
C1109       C  0.79792662  0.15224460  0.41807689    -0.00300
C1110       C  0.78564879  0.15333021  0.39422016    -0.02900
C1111       C  0.74257383  0.14343843  0.43305263     0.36400
C1112       C  0.81672601  0.15214082  0.41100794     0.40000
C1113       C  0.76720540  0.13636918  0.47873469     0.39100
C1114       C  0.79178360  0.15625297  0.36394372     0.36100
C1115       C  0.75362762  0.18481360  0.37983731     0.36700
C1116       C  0.72811502  0.12093566  0.32546139     0.40000
N1117       N  0.76146515  0.12984083  0.49998146    -0.38100
N1118       N  0.72756422  0.14099715  0.43690275    -0.39700
N1119       N  0.83169241  0.15197145  0.40505553    -0.37400
N1120       N  0.79655863  0.15850800  0.33971622    -0.39800
N1121       N  0.76186069  0.10587935  0.37610303    -0.39600
N1122       N  0.72285443  0.10803757  0.31453313    -0.37200
N1123       N  0.72107009  0.20003015  0.32702358    -0.38300
N1124       N  0.75871635  0.19768529  0.39107775    -0.39900
C1125       C  0.78973392  0.14719925  0.10770870    -0.04900
C1126       C  0.77741234  0.16133177  0.10969397     0.09300
C1127       C  0.77816005  0.17503405  0.08825773    -0.02200
C1128       C  0.78978205  0.17365417  0.06362716    -0.00500
C1129       C  0.79997738  0.15805642  0.05904544    -0.04100
C1130       C  0.80089227  0.14546734  0.08242353     0.02900
C1131       C  0.76291102  0.16111626  0.13298456     0.09700
C1132       C  0.76641117  0.19022548  0.09075175     0.35600
C1133       C  0.81292642  0.13050663  0.08058249     0.39100
C1134       C  0.76284179  0.17340038  0.15685397    -0.04500
C1135       C  0.74851439  0.17378468  0.17734247     0.02700
C1136       C  0.73462848  0.16111116  0.17536322    -0.04100
C1137       C  0.73526319  0.14823526  0.15239265    -0.00300
C1138       C  0.74895400  0.14859707  0.13083694    -0.02900
C1139       C  0.77778996  0.18532378  0.16075077     0.36400
C1140       C  0.72208214  0.13420222  0.15151221     0.40000
C1141       C  0.74813033  0.18719500  0.20056666     0.39100
C1142       C  0.74863197  0.13606802  0.10623153     0.36100
C1143       C  0.79055683  0.13417398  0.13146488     0.36700
C1144       C  0.79129397  0.18836618  0.04292623     0.40000
N1145       N  0.74788685  0.19785909  0.21917295    -0.38100
N1146       N  0.78982359  0.19470555  0.16390800    -0.39700
N1147       N  0.71161291  0.12295805  0.15108092    -0.37400
N1148       N  0.74842783  0.12609501  0.08657142    -0.39800
N1149       N  0.75708793  0.20239366  0.09271562    -0.39600
N1150       N  0.79264372  0.20012219  0.02650213    -0.37200
N1151       N  0.82264180  0.11859552  0.08007164    -0.38300
N1152       N  0.79120977  0.12382171  0.15048614    -0.39900
C1153       C  0.48098486  0.78421615  0.38424114    -0.04900
C1154       C  0.46409811  0.77724130  0.39123291     0.09300
C1155       C  0.46113051  0.76999904  0.41981118    -0.02200
C1156       C  0.47493906  0.76974443  0.44129353    -0.00500
C1157       C  0.49172790  0.77719484  0.43462779    -0.04100
C1158       C  0.49468917  0.78429666  0.40587135     0.02900
C1159       C  0.44929119  0.77798624  0.36870030     0.09700
C1160       C  0.44368558  0.76315157  0.42721416     0.35600
C1161       C  0.51202400  0.79117160  0.39802160     0.39100
C1162       C  0.44571131  0.76329677  0.35001820    -0.04500
C1163       C  0.43227416  0.76437220  0.32798759     0.02700
C1164       C  0.42203188  0.77999116  0.32496712    -0.04100
C1165       C  0.42508366  0.79437608  0.34457059    -0.00300
C1166       C  0.43878898  0.79344914  0.36611613    -0.02900
C1167       C  0.45568953  0.74699155  0.35383417     0.36400
C1168       C  0.41405474  0.81012292  0.34258728     0.40000
C1169       C  0.42880908  0.74936607  0.30855102     0.39100
C1170       C  0.44204648  0.80834814  0.38589659     0.36100
C1171       C  0.48424344  0.79133663  0.35469116     0.36700
C1172       C  0.47168177  0.76220398  0.47052179     0.40000
N1173       N  0.42597255  0.73743861  0.29296110    -0.38100
N1174       N  0.46352657  0.73391478  0.35712221    -0.39700
N1175       N  0.40514745  0.82262282  0.34114086    -0.37400
N1176       N  0.44470067  0.82017950  0.40178145    -0.39800
N1177       N  0.42969967  0.75778554  0.43297539    -0.39600
N1178       N  0.46904413  0.75614602  0.49380946    -0.37200
N1179       N  0.52578638  0.79660501  0.39115477    -0.38300
N1180       N  0.48688932  0.79700603  0.33112972    -0.39900
C1181       C  0.46181036  0.79074734  0.07694461    -0.04900
C1182       C  0.46459230  0.78297112  0.10524361     0.09300
C1183       C  0.48103961  0.77477014  0.11171557    -0.02200
C1184       C  0.49432524  0.77368966  0.08964419    -0.00500
C1185       C  0.49170525  0.78182471  0.06155310    -0.04100
C1186       C  0.47546074  0.79056798  0.05543978     0.02900
C1187       C  0.45006931  0.78331501  0.12805491     0.09700
C1188       C  0.48439419  0.76769476  0.14129297     0.35600
C1189       C  0.47247478  0.79885425  0.02664069     0.39100
C1190       C  0.44120843  0.76748241  0.13607609    -0.04500
C1191       C  0.42749349  0.76789378  0.15745835     0.02700
C1192       C  0.42181079  0.78425573  0.16949587    -0.04100
C1193       C  0.43020457  0.80012955  0.16064377    -0.00300
C1194       C  0.44480279  0.79957331  0.14106613    -0.02900
C1195       C  0.44619177  0.75077756  0.12229184     0.36400
C1196       C  0.42379878  0.81702617  0.17186775     0.40000
C1197       C  0.41924291  0.75150475  0.16718478     0.39100
C1198       C  0.45473558  0.81565040  0.13495779     0.36100
C1199       C  0.44475115  0.79872911  0.06983712     0.36700
C1200       C  0.51079714  0.76439072  0.09607951     0.40000
N1201       N  0.41265291  0.73844016  0.17498090    -0.38100
N1202       N  0.45022691  0.73745853  0.11133081    -0.39700
N1203       N  0.41853218  0.83046987  0.18071215    -0.37400
N1204       N  0.46275551  0.82844522  0.13028718    -0.39800
N1205       N  0.48708294  0.76208859  0.16490516    -0.39600
N1206       N  0.52388319  0.75686410  0.10110143    -0.37200
N1207       N  0.47003201  0.80550187  0.00372649    -0.38300
N1208       N  0.43113332  0.80511228  0.06435192    -0.39900
C1209       C  0.23675990  0.87049951  0.01704362    -0.04900
C1210       C  0.21940857  0.87566744  0.00877735     0.09300
C1211       C  0.20726374  0.86275332  0.49991115    -0.02200
C1212       C  0.21196777  0.84457824  0.49867206    -0.00500
C1213       C  0.22955781  0.83937781  0.00618846    -0.04100
C1214       C  0.24189898  0.85250176  0.01530484     0.02900
C1215       C  0.21413268  0.89494338  0.00951354     0.09700
C1216       C  0.18924833  0.86817946  0.49285226     0.35600
C1217       C  0.26004680  0.84749600  0.02249148     0.39100
C1218       C  0.21819886  0.90635138  0.48400045    -0.04500
C1219       C  0.21197235  0.92410883  0.48432300     0.02700
C1220       C  0.20190818  0.93078447  0.00921903    -0.04100
C1221       C  0.19743497  0.91908185  0.03298278    -0.00300
C1222       C  0.20390188  0.90148096  0.03338383    -0.02900
C1223       C  0.22770469  0.89961265  0.45825632     0.36400
C1224       C  0.18513058  0.92450068  0.05619131     0.40000
C1225       C  0.21552219  0.93552829  0.45901243     0.42700
C1226       C  0.19993395  0.88992928  0.05839709     0.36100
C1227       C  0.24936789  0.88377462  0.02714751     0.36700
C1228       C  0.19894246  0.83143595  0.48970009     0.40000
N1229       N  0.21837233  0.94466115  0.43884090    -0.38100
N1230       N  0.23537904  0.89426645  0.43777260    -0.39700
N1231       N  0.17524358  0.92861295  0.07471254    -0.37400
N1232       N  0.19691542  0.88071517  0.07839003    -0.39800
N1233       N  0.17486020  0.87247400  0.48718445    -0.39600
N1234       N  0.18862286  0.82092433  0.48230417    -0.37200
N1235       N  0.27448691  0.84347108  0.02837495    -0.38300
N1236       N  0.25940237  0.89438226  0.03525050    -0.39900
C1237       C  0.28288763  0.77641549  0.40871527    -0.04900
C1238       C  0.28887087  0.79092122  0.39165578     0.09300
C1239       C  0.28297366  0.80809173  0.39904777    -0.02200
C1240       C  0.27331431  0.81094921  0.42542930    -0.00500
C1241       C  0.26494963  0.79648883  0.44046775    -0.04100
C1242       C  0.27045862  0.77900348  0.43202494     0.02900
C1243       C  0.30326636  0.78868815  0.36875363     0.09700
C1244       C  0.28796999  0.82313211  0.38059121     0.35600
C1245       C  0.26447693  0.76344875  0.44813490     0.39100
C1246       C  0.30042066  0.77866842  0.34248843    -0.04500
C1247       C  0.31418224  0.77685541  0.32135047     0.02700
C1248       C  0.33001159  0.78685598  0.32440089    -0.04100
C1249       C  0.33254353  0.79738301  0.35015889    -0.00300
C1250       C  0.31985896  0.79716867  0.37314072    -0.02900
C1251       C  0.28327537  0.77051432  0.33685157     0.36400
C1252       C  0.34792091  0.80892691  0.35266598     0.40000
C1253       C  0.31208733  0.76462381  0.29657119     0.39100
C1254       C  0.32396186  0.80562621  0.40145651     0.36100
C1255       C  0.29019503  0.75886835  0.40320085     0.36700
C1256       C  0.27539838  0.82823245  0.43929359     0.40000
N1257       N  0.31046202  0.75478827  0.27690411    -0.38100
N1258       N  0.26961198  0.76399611  0.33224679    -0.39700
N1259       N  0.36011690  0.81822101  0.35452275    -0.37400
N1260       N  0.32723097  0.81229167  0.42409023    -0.39800
N1261       N  0.29197285  0.83511139  0.36594012    -0.39600
N1262       N  0.27751736  0.84204659  0.45005552    -0.37200
N1263       N  0.25966057  0.75076119  0.46018501    -0.38300
N1264       N  0.29607891  0.74491396  0.39879364    -0.39900
C1265       C  0.27253431  0.80730681  0.10469491    -0.04900
C1266       C  0.28537225  0.79361777  0.10624043     0.09300
C1267       C  0.28509535  0.78006591  0.08451981    -0.02200
C1268       C  0.27303753  0.78091753  0.06047828    -0.00500
C1269       C  0.26225645  0.79610887  0.05613055    -0.04100
C1270       C  0.26098850  0.80858355  0.07972114     0.02900
C1271       C  0.29967124  0.79369524  0.12980997     0.09700
C1272       C  0.29775522  0.76554677  0.08615382     0.35600
C1273       C  0.24781343  0.82258454  0.07889063     0.39100
C1274       C  0.30017469  0.78039134  0.15199793    -0.04500
C1275       C  0.31489264  0.77909081  0.17147364     0.02700
C1276       C  0.32861571  0.79190221  0.17059380    -0.04100
C1277       C  0.32783350  0.80556714  0.14907936    -0.00300
C1278       C  0.31365962  0.80620324  0.12833977    -0.02900
C1279       C  0.28556693  0.76795247  0.15468693     0.36400
C1280       C  0.34165012  0.81896018  0.14825042     0.40000
C1281       C  0.31628047  0.76415043  0.19172472     0.39100
C1282       C  0.31366469  0.81949566  0.10496176     0.36100
C1283       C  0.27151207  0.82028573  0.12855318     0.36700
C1284       C  0.27111386  0.76563270  0.04113256     0.40000
N1285       N  0.31755313  0.75212088  0.20760929    -0.38100
N1286       N  0.27393514  0.75800422  0.15687789    -0.39700
N1287       N  0.35270301  0.82962620  0.14757558    -0.37400
N1288       N  0.31359354  0.83004652  0.08622121    -0.39800
N1289       N  0.30786848  0.75399268  0.08753072    -0.39600
N1290       N  0.27315477  0.75439975  0.52192641    -0.37200
N1291       N  0.23713791  0.83365470  0.07913741    -0.38300
N1292       N  0.27072209  0.83064682  0.14759231    -0.39900
C1293       C  0.62042109  0.80216261  0.13185707    -0.04900
C1294       C  0.60970775  0.78679511  0.13023144     0.09300
C1295       C  0.61267062  0.77288025  0.15069684    -0.02200
C1296       C  0.62642571  0.77416146  0.17221941    -0.00500
C1297       C  0.63730577  0.78950426  0.17377408    -0.04100
C1298       C  0.63398726  0.80360872  0.15369605     0.02900
C1299       C  0.59522571  0.78540235  0.10700711     0.09700
C1300       C  0.60140773  0.75728037  0.14970971     0.35600
C1301       C  0.64414882  0.81988130  0.15616332     0.39100
C1302       C  0.59911537  0.77891277  0.07818792    -0.04500
C1303       C  0.58582378  0.77862111  0.05581211     0.02700
C1304       C  0.56828999  0.78415792  0.06227627    -0.04100
C1305       C  0.56441645  0.79079004  0.09106442    -0.00300
C1306       C  0.57777167  0.79120263  0.11340830    -0.02900
C1307       C  0.61677991  0.77224453  0.07170004     0.36400
C1308       C  0.54671781  0.79731851  0.09765785     0.40000
C1309       C  0.59055713  0.77371734  0.02560531     0.39100
C1310       C  0.57351725  0.79724156  0.14326635     0.36100
C1311       C  0.61730798  0.81658306  0.11110018     0.36700
C1312       C  0.62926531  0.75969846  0.19300463     0.40000
N1313       N  0.59472406  0.77019257  0.00149658    -0.38100
N1314       N  0.63080838  0.76673262  0.06655652    -0.39700
N1315       N  0.53264694  0.80269916  0.10287566    -0.37400
N1316       N  0.57016902  0.80187559  0.16723273    -0.39800
N1317       N  0.59234901  0.74487877  0.14896879    -0.39600
N1318       N  0.63142237  0.74823616  0.20978807    -0.37200
N1319       N  0.65218789  0.83291535  0.15823297    -0.38300
N1320       N  0.61474828  0.82802956  0.09444135    -0.39900
C1321       C  0.61213773  0.76544562  0.34421014    -0.04900
C1322       C  0.61102177  0.77734510  0.36852966     0.09300
C1323       C  0.62458157  0.79006032  0.37295037    -0.02200
C1324       C  0.63843765  0.79171942  0.35208804    -0.00500
C1325       C  0.63953150  0.77989555  0.32767003    -0.04100
C1326       C  0.62672772  0.76627078  0.32455953     0.02900
C1327       C  0.59553096  0.77677904  0.38947043     0.09700
C1328       C  0.62417525  0.80157219  0.39893351     0.35600
C1329       C  0.62854943  0.75314515  0.30105314     0.39100
C1330       C  0.59316288  0.76225791  0.40880069    -0.04500
C1331       C  0.57882261  0.76202083  0.42902181     0.02700
C1332       C  0.56803118  0.77739708  0.43300441    -0.04100
C1333       C  0.57094146  0.79221219  0.41392856    -0.00300
C1334       C  0.58373621  0.79128648  0.39104097    -0.02900
C1335       C  0.60585372  0.74772809  0.40851174     0.36400
C1336       C  0.56118086  0.80868702  0.41764942     0.40000
C1337       C  0.57561395  0.74584666  0.44570587     0.39100
C1338       C  0.58481221  0.80532858  0.36893767     0.36100
C1339       C  0.59803385  0.75268580  0.33892947     0.36700
C1340       C  0.65130859  0.80593030  0.35533568     0.40000
N1341       N  0.57304386  0.73281050  0.45863033    -0.38100
N1342       N  0.61602978  0.73620139  0.40834882    -0.39700
N1343       N  0.55367249  0.82198807  0.42062935    -0.37400
N1344       N  0.58558727  0.81641939  0.35114931    -0.39800
N1345       N  0.62377994  0.81074097  0.41965895    -0.39600
N1346       N  0.66161383  0.81723035  0.35788828    -0.37200
N1347       N  0.63003118  0.74258740  0.28244486    -0.38300
N1348       N  0.58676616  0.74252040  0.33476961    -0.39900
C1349       C  0.82609486  0.87148774  0.47777917    -0.04900
C1350       C  0.84034734  0.87719447  0.98780154     0.09300
C1351       C  0.85131547  0.86498578  0.00310719    -0.02200
C1352       C  0.84637274  0.84690844  0.00515479    -0.00500
C1353       C  0.83073095  0.84070605  0.99095839    -0.04100
C1354       C  0.82017921  0.85373672  0.47958769     0.02900
C1355       C  0.84494944  0.89665269  0.98748870     0.09700
C1356       C  0.86755674  0.87115422  0.01721505     0.35600
C1357       C  0.80315478  0.84889235  0.46669253     0.39100
C1358       C  0.83831549  0.90825664  0.00965119    -0.04500
C1359       C  0.84363156  0.92631692  0.01039693     0.02700
C1360       C  0.85553506  0.93303933  0.98873323    -0.04100
C1361       C  0.86381406  0.92065372  0.47321858    -0.00300
C1362       C  0.85879975  0.90259989  0.47325411    -0.02900
C1363       C  0.82617974  0.90147114  0.03197241     0.36400
C1364       C  0.87680358  0.92644847  0.45140405     0.40000
C1365       C  0.83666107  0.93798908  0.03330409     0.39100
C1366       C  0.86690398  0.89025872  0.45240790     0.36100
C1367       C  0.81646125  0.88416846  0.45958822     0.36700
C1368       C  0.85652442  0.83505547  0.02415846     0.40000
N1369       N  0.83104291  0.94729973  0.05155968    -0.38100
N1370       N  0.81646097  0.89600765  0.04970280    -0.39700
N1371       N  0.88710982  0.93080010  0.43373257    -0.37400
N1372       N  0.87352406  0.88036829  0.43606544    -0.39800
N1373       N  0.88056113  0.87611182  0.02827165    -0.39600
N1374       N  0.86448839  0.82569596  0.03969550    -0.37200
N1375       N  0.78946247  0.84510152  0.45673125    -0.38300
N1376       N  0.80885254  0.89425723  0.44487872    -0.39900
C1377       C  0.76528985  0.80461638  0.07974576    -0.04900
C1378       C  0.77197963  0.80003599  0.10800782     0.09300
C1379       C  0.79046916  0.79805763  0.11196109    -0.02200
C1380       C  0.80208437  0.79922103  0.08716190    -0.00500
C1381       C  0.79516905  0.80200468  0.05787156    -0.04100
C1382       C  0.77690949  0.80700818  0.05556789     0.02900
C1383       C  0.75936669  0.79902185  0.13377696     0.09700
C1384       C  0.79755612  0.79553432  0.14178375     0.35600
C1385       C  0.77012711  0.81631091  0.02954851     0.39100
C1386       C  0.75274610  0.78245688  0.14326570    -0.04500
C1387       C  0.73864721  0.78169552  0.16395733     0.02700
C1388       C  0.73113269  0.79750224  0.17536223    -0.04100
C1389       C  0.73812491  0.81406493  0.16649968    -0.00300
C1390       C  0.75231689  0.81480526  0.14603480    -0.02900
C1391       C  0.76033985  0.76622019  0.13145030     0.36400
C1392       C  0.73070670  0.83033886  0.17851345     0.40000
C1393       C  0.73160118  0.76465823  0.17317995     0.39100
C1394       C  0.75962664  0.83182033  0.13724739     0.36100
C1395       C  0.74629816  0.80722902  0.07566822     0.36700
C1396       C  0.82107801  0.79961016  0.09272439     0.40000
N1397       N  0.72580113  0.75111985  0.18044501    -0.38100
N1398       N  0.76648913  0.75326277  0.12216710    -0.39700
N1399       N  0.72483929  0.84332859  0.18817467    -0.37400
N1400       N  0.76554057  0.84534768  0.13018233    -0.39800
N1401       N  0.80324290  0.79365867  0.16558921    -0.39600
N1402       N  0.83621824  0.80010258  0.09735982    -0.37200
N1403       N  0.76233497  0.82424164  0.51082676    -0.38300
N1404       N  0.73115517  0.80923015  0.07251989    -0.39900
C1405       C  0.77462127  0.77773134  0.41948074    -0.04900
C1406       C  0.77443186  0.79037334  0.39631736     0.09300
C1407       C  0.78787767  0.80348667  0.39583076    -0.02200
C1408       C  0.79975838  0.80545978  0.42030943    -0.00500
C1409       C  0.79818709  0.79431954  0.44563613    -0.04100
C1410       C  0.78700225  0.77920721  0.44309332     0.02900
C1411       C  0.75987603  0.79012100  0.37297001     0.09700
C1412       C  0.78933415  0.81503791  0.37011173     0.35600
C1413       C  0.78874765  0.76468206  0.46408217     0.39100
C1414       C  0.74630530  0.80313796  0.37351718    -0.04500
C1415       C  0.73261690  0.80305650  0.35176917     0.02700
C1416       C  0.73196398  0.78961830  0.32975367    -0.04100
C1417       C  0.74526304  0.77633627  0.32965423    -0.00300
C1418       C  0.75926479  0.77672851  0.35083439    -0.02900
C1419       C  0.74629663  0.81649011  0.39686371     0.36400
C1420       C  0.74447399  0.76221181  0.30769213     0.40000
C1421       C  0.71936268  0.81703885  0.35164802     0.39100
C1422       C  0.77309304  0.76333996  0.34981802     0.36100
C1423       C  0.76165783  0.76349015  0.41964485     0.36700
C1424       C  0.81369041  0.81864581  0.41867029     0.40000
N1425       N  0.70882824  0.82824060  0.35143439    -0.38100
N1426       N  0.74633187  0.82706785  0.41561365    -0.39700
N1427       N  0.74377896  0.75095384  0.29013859    -0.37400
N1428       N  0.78406911  0.75258234  0.34912858    -0.39800
N1429       N  0.79049816  0.82416597  0.34946472    -0.39600
N1430       N  0.82494653  0.82903169  0.41651776    -0.37200
N1431       N  0.79156147  0.75141271  0.98231713    -0.38300
N1432       N  0.75132620  0.75211784  0.41978962    -0.39900
C1433       C  0.83001046  0.41343165  0.08852484    -0.04900
C1434       C  0.84180226  0.41424075  0.11305776     0.09300
C1435       C  0.85378278  0.42861775  0.11541709    -0.02200
C1436       C  0.85429430  0.44181697  0.09302968    -0.00500
C1437       C  0.84267248  0.44085536  0.06819618    -0.04100
C1438       C  0.83032769  0.42671824  0.06635564     0.02900
C1439       C  0.84173342  0.39975132  0.13611465     0.09700
C1440       C  0.86543877  0.42991434  0.14115608     0.35600
C1441       C  0.81824532  0.42547350  0.04113995     0.39100
C1442       C  0.85561130  0.38711206  0.13689289    -0.04500
C1443       C  0.85540840  0.37327862  0.15811969     0.02700
C1444       C  0.84109891  0.37167102  0.17836935    -0.04100
C1445       C  0.82700987  0.38409988  0.17711887    -0.00300
C1446       C  0.82753424  0.39829110  0.15656013    -0.02900
C1447       C  0.87008885  0.38830087  0.11566420     0.36400
C1448       C  0.81179554  0.38208867  0.19664020     0.40000
C1449       C  0.87001604  0.36070883  0.15922299     0.39100
C1450       C  0.81352195  0.41152554  0.15655805     0.36100
C1451       C  0.81761352  0.39876444  0.08594495     0.36700
C1452       C  0.86632221  0.45675222  0.09620143     0.40000
N1453       N  0.88159872  0.35060189  0.16007861    -0.38100
N1454       N  0.88165520  0.38930185  0.09876801    -0.39700
N1455       N  0.79964691  0.38044603  0.21218957    -0.37400
N1456       N  0.80237871  0.42212455  0.15650962    -0.39800
N1457       N  0.87473092  0.43090272  0.16170842    -0.39600
N1458       N  0.87586646  0.46870270  0.09876969    -0.37200
N1459       N  0.80862998  0.42449096  0.02100731    -0.38300
N1460       N  0.80765692  0.38711679  0.08400457    -0.39900
C1461       C  0.82065167  0.38527591  0.36622619    -0.04900
C1462       C  0.83670660  0.39220631  0.37779246     0.09300
C1463       C  0.85314553  0.38536178  0.36780840    -0.02200
C1464       C  0.85351049  0.37168064  0.34644016    -0.00500
C1465       C  0.83749285  0.36531099  0.33400548    -0.04100
C1466       C  0.82106349  0.37214558  0.34382900     0.02900
C1467       C  0.83639886  0.40729890  0.39945259     0.09700
C1468       C  0.86970019  0.39289349  0.37862288     0.35600
C1469       C  0.80467099  0.36606548  0.33013968     0.39100
C1470       C  0.84181549  0.40466148  0.42927320    -0.04500
C1471       C  0.84331030  0.41925955  0.44875760     0.02700
C1472       C  0.83764376  0.43626967  0.43946587    -0.04100
C1473       C  0.83124870  0.43872552  0.41014338    -0.00300
C1474       C  0.83145911  0.42444945  0.38977479    -0.02900
C1475       C  0.84590173  0.38692178  0.43984044     0.36400
C1476       C  0.82493457  0.45600328  0.40063542     0.40000
C1477       C  0.85103860  0.41678740  0.47815669     0.39100
C1478       C  0.82734128  0.42750271  0.35855290     0.36100
C1479       C  0.80373997  0.39188512  0.37705761     0.36700
C1480       C  0.87039336  0.36461886  0.33619934     0.40000
N1481       N  0.85751767  0.41477455  0.50135336    -0.38100
N1482       N  0.84906324  0.37276050  0.44830640    -0.39700
N1483       N  0.81970155  0.46970234  0.39293407    -0.37400
N1484       N  0.82427000  0.42983686  0.33354835    -0.39800
N1485       N  0.88290445  0.39893183  0.38718717    -0.39600
N1486       N  0.88379986  0.35897040  0.32783222    -0.37200
N1487       N  0.79162589  0.36126439  0.31903297    -0.38300
N1488       N  0.79025961  0.39720296  0.38569219    -0.39900
C1489       C  0.92100220  0.16519946  0.47660940    -0.04900
C1490       C  0.93073642  0.16594994  0.00043284     0.09300
C1491       C  0.92193400  0.16729636  0.02806121    -0.02200
C1492       C  0.90357211  0.17095318  0.02921895    -0.00500
C1493       C  0.89390175  0.17565009  0.00306636    -0.04100
C1494       C  0.90283897  0.17038833  0.47739045     0.02900
C1495       C  0.94947554  0.15884284  0.99958388     0.09700
C1496       C  0.93176056  0.16437340  0.05560604     0.35600
C1497       C  0.89337986  0.17119775  0.44927809     0.39100
C1498       C  0.96409951  0.16955301  0.99120053    -0.04500
C1499       C  0.98166532  0.16267690  0.99251743     0.02700
C1500       C  0.98479516  0.14554713  0.00420167    -0.04100
C1501       C  0.97011758  0.13511401  0.01328472    -0.00300
C1502       C  0.95262701  0.14130977  0.00926950    -0.02900
C1503       C  0.96031615  0.18555061  0.48146824     0.36400
C1504       C  0.97272809  0.11805996  0.02759061     0.40000
C1505       C  0.99640719  0.17338566  0.48669323     0.39100
C1506       C  0.93772066  0.12958947  0.01532708     0.36100
C1507       C  0.92954949  0.16128419  0.44835121     0.36700
C1508       C  0.89454055  0.16781624  0.05721771     0.40000
N1509       N  0.00803059  0.18235631  0.47911437    -0.38100
N1510       N  0.95727872  0.19942967  0.47166491    -0.39700
N1511       N  0.97412711  0.10460762  0.03978624    -0.37400
N1512       N  0.92580099  0.12032023  0.02009639    -0.39800
N1513       N  0.93954370  0.16192524  0.07752601    -0.39600
N1514       N  0.88805575  0.16472162  0.07997679    -0.37200
N1515       N  0.88636822  0.17151852  0.42625390    -0.38300
N1516       N  0.93642181  0.15823583  0.42584097    -0.39900
C1517       C  0.84019875  0.24443828  0.07722067    -0.04900
C1518       C  0.84814206  0.23983329  0.10455735     0.09300
C1519       C  0.85378057  0.22225741  0.10938657    -0.02200
C1520       C  0.85308934  0.20986133  0.08584206    -0.00500
C1521       C  0.84851989  0.21543823  0.05663076    -0.04100
C1522       C  0.83942000  0.23194567  0.05390157     0.02900
C1523       C  0.84879058  0.25311544  0.12911861     0.09700
C1524       C  0.86017106  0.21694981  0.13859491     0.35600
C1525       C  0.82695141  0.23515853  0.02976013     0.39100
C1526       C  0.83456142  0.25427037  0.14946318    -0.04500
C1527       C  0.83453860  0.26758243  0.17145977     0.02700
C1528       C  0.84887335  0.27958939  0.17341844    -0.04100
C1529       C  0.86302747  0.27855919  0.15292172    -0.00300
C1530       C  0.86299383  0.26529496  0.13077078    -0.02900
C1531       C  0.81982535  0.24192351  0.14736405     0.36400
C1532       C  0.87743447  0.29131186  0.15446598     0.40000
C1533       C  0.81951892  0.26934717  0.19151312     0.39100
C1534       C  0.87743267  0.26424133  0.10945796     0.36100
C1535       C  0.83254787  0.26198829  0.07333363     0.36700
C1536       C  0.85442703  0.19113867  0.09262023     0.40000
N1537       N  0.80751062  0.27090984  0.20740050    -0.38100
N1538       N  0.80809012  0.23205294  0.14563935    -0.39700
N1539       N  0.88883661  0.30159277  0.15568565    -0.37400
N1540       N  0.88892760  0.26338613  0.09239691    -0.39800
N1541       N  0.86530978  0.21278133  0.16191456    -0.39600
N1542       N  0.85436819  0.17621497  0.09864078    -0.37200
N1543       N  0.81688916  0.23785333  0.01071505    -0.38300
N1544       N  0.82651854  0.27600944  0.07032932    -0.39900
C1545       C  0.83867964  0.22800561  0.41053237    -0.04900
C1546       C  0.85438406  0.23302623  0.39540918     0.09300
C1547       C  0.87077168  0.22567310  0.40484498    -0.02200
C1548       C  0.87166884  0.21525135  0.43106091    -0.00500
C1549       C  0.85591950  0.20961646  0.44541581    -0.04100
C1550       C  0.83937233  0.21569673  0.43429539     0.02900
C1551       C  0.85374509  0.24701829  0.37120444     0.09700
C1552       C  0.88685624  0.22938523  0.38819711     0.35600
C1553       C  0.82301867  0.21039723  0.44889241     0.39100
C1554       C  0.86206461  0.26369591  0.37550459    -0.04500
C1555       C  0.86107306  0.27696174  0.35324821     0.02700
C1556       C  0.85060275  0.27433526  0.32729177    -0.04100
C1557       C  0.84189405  0.25779724  0.32339363    -0.00300
C1558       C  0.84410704  0.24402601  0.34453179    -0.02900
C1559       C  0.87135259  0.26743999  0.40322032     0.36400
C1560       C  0.83021933  0.25501699  0.29800439     0.40000
C1561       C  0.87086906  0.29339534  0.35717660     0.39100
C1562       C  0.83642706  0.22668989  0.33882208     0.36100
C1563       C  0.82189651  0.23642083  0.40304432     0.36700
C1564       C  0.88878963  0.21253203  0.44520771     0.40000
N1565       N  0.87858247  0.30655410  0.36032700    -0.38100
N1566       N  0.87880946  0.27042531  0.42527899    -0.39700
N1567       N  0.82094460  0.25276095  0.27771159    -0.37400
N1568       N  0.83030189  0.21284902  0.33437026    -0.39800
N1569       N  0.89967591  0.23229568  0.37484442    -0.39600
N1570       N  0.90256318  0.21097492  0.45647377    -0.37200
N1571       N  0.80990186  0.20628314  0.46040717    -0.38300
N1572       N  0.80853718  0.24322047  0.39719484    -0.39900
C1573       C  0.85734637  0.56460193  0.36113279    -0.04900
C1574       C  0.84121577  0.55730546  0.37156020     0.09300
C1575       C  0.82491018  0.56408983  0.36073582    -0.02200
C1576       C  0.82477102  0.57807300  0.33977493    -0.00500
C1577       C  0.84089709  0.58461263  0.32808668    -0.04100
C1578       C  0.85719110  0.57786146  0.33890565     0.02900
C1579       C  0.84147111  0.54241420  0.39383366     0.09700
C1580       C  0.80828781  0.55642867  0.37075619     0.35600
C1581       C  0.87379623  0.58464543  0.32718826     0.39100
C1582       C  0.83661309  0.54552186  0.42380231    -0.04500
C1583       C  0.83651574  0.53142560  0.44451146     0.02700
C1584       C  0.84259379  0.51438619  0.43603436    -0.04100
C1585       C  0.84821958  0.51146144  0.40637787    -0.00300
C1586       C  0.84687071  0.52521067  0.38506488    -0.02900
C1587       C  0.83200757  0.56331617  0.43345931     0.36400
C1588       C  0.85531086  0.49432576  0.39768368     0.40000
C1589       C  0.83044523  0.53457515  0.47477579     0.39100
C1590       C  0.85055384  0.52159107  0.35388932     0.36100
C1591       C  0.87409689  0.55861259  0.37366327     0.36700
C1592       C  0.80805378  0.58588308  0.33038061     0.40000
N1593       N  0.82547710  0.53706711  0.49884267    -0.38100
N1594       N  0.82843301  0.57752513  0.44124400    -0.39700
N1595       N  0.86120216  0.48075342  0.39068538    -0.37400
N1596       N  0.85325967  0.51876147  0.32892057    -0.39800
N1597       N  0.79504674  0.55023666  0.37870404    -0.39600
N1598       N  0.79474272  0.59229312  0.32314131    -0.37200
N1599       N  0.88703429  0.59004660  0.31774980    -0.38300
N1600       N  0.88742087  0.55387212  0.38387412    -0.39900
C1601       C  0.84369763  0.52728990  0.11536572    -0.04900
C1602       C  0.85357413  0.54276219  0.10926486     0.09300
C1603       C  0.86257591  0.54441606  0.08185660    -0.02200
C1604       C  0.86118044  0.53092653  0.06010154    -0.00500
C1605       C  0.85067128  0.51573227  0.06565924    -0.04100
C1606       C  0.84222129  0.51381199  0.09363117     0.02900
C1607       C  0.85355424  0.55781207  0.13101296     0.09700
C1608       C  0.87299617  0.56020880  0.07595301     0.35600
C1609       C  0.83231368  0.49778788  0.10032103     0.39100
C1610       C  0.86690219  0.55916247  0.15307238    -0.04500
C1611       C  0.86648556  0.57321000  0.17390923     0.02700
C1612       C  0.85236310  0.58557922  0.17337014    -0.04100
C1613       C  0.83916407  0.58433481  0.15100575    -0.00300
C1614       C  0.83989301  0.57062545  0.12967623    -0.02900
C1615       C  0.88080139  0.54586225  0.15467446     0.36400
C1616       C  0.82447656  0.59682867  0.15059066     0.40000
C1617       C  0.88044058  0.57488504  0.19611713     0.39100
C1618       C  0.82642306  0.56951509  0.10653479     0.36100
C1619       C  0.83498201  0.52534543  0.14402068     0.36700
C1620       C  0.86997264  0.53306050  0.03156328     0.40000
N1621       N  0.89155295  0.57628588  0.21386629    -0.38100
N1622       N  0.89183494  0.53518112  0.15604302    -0.39700
N1623       N  0.81276525  0.60679444  0.15040772    -0.37400
N1624       N  0.81570765  0.56865053  0.08802214    -0.39800
N1625       N  0.88129933  0.57284276  0.07143931    -0.39600
N1626       N  0.87697638  0.53478442  0.00878586    -0.37200
N1627       N  0.82445646  0.48498140  0.10565152    -0.38300
N1628       N  0.82809270  0.52383036  0.16693911    -0.39900
C1629       C  0.95883062  0.78706532  0.47428134    -0.04900
C1630       C  0.94978055  0.78449204  0.99994640     0.09300
C1631       C  0.95772454  0.78914425  0.02730337    -0.02200
C1632       C  0.97549520  0.79531281  0.02829500    -0.00500
C1633       C  0.98568673  0.79695226  0.00155547    -0.04100
C1634       C  0.97690902  0.79230377  0.47533985     0.02900
C1635       C  0.93057327  0.77898602  0.99877775     0.09700
C1636       C  0.94733491  0.78791153  0.05449184     0.35600
C1637       C  0.98706961  0.79223330  0.44787429     0.39100
C1638       C  0.92599896  0.76085408  0.99946928    -0.04500
C1639       C  0.90799460  0.75560907  0.99791613     0.02700
C1640       C  0.89428822  0.76850507  0.99591263    -0.04100
C1641       C  0.89768241  0.78802711  0.49634238    -0.00300
C1642       C  0.91572247  0.79333428  0.49830244    -0.02900
C1643       C  0.93991647  0.74757271  0.00159947     0.36400
C1644       C  0.88405468  0.80115395  0.49044563     0.40000
C1645       C  0.90366656  0.73685841  0.99873022     0.39100
C1646       C  0.92022997  0.81203568  0.49847062     0.36100
C1647       C  0.95045226  0.78311324  0.44585401     0.36700
C1648       C  0.98277261  0.80035486  0.05709450     0.40000
N1649       N  0.90040953  0.72186412  0.99952404    -0.38100
N1650       N  0.95104446  0.73700019  0.00319918    -0.39700
N1651       N  0.87324287  0.81152505  0.48466583    -0.37400
N1652       N  0.92376605  0.82698070  0.49867761    -0.39800
N1653       N  0.93898798  0.78690863  0.07608519    -0.39600
N1654       N  0.98840208  0.80430718  0.08022796    -0.37200
N1655       N  0.99513082  0.79207032  0.42590778    -0.38300
N1656       N  0.94370653  0.78000626  0.42321170    -0.39900
C1657       C  0.84283523  0.70728468  0.42117452    -0.04900
C1658       C  0.83648378  0.71456193  0.39438578     0.09300
C1659       C  0.83500409  0.73305543  0.39128500    -0.02200
C1660       C  0.83949498  0.74435350  0.41528201    -0.00500
C1661       C  0.84438289  0.73712445  0.44361370    -0.04100
C1662       C  0.84758827  0.71843403  0.44507558     0.02900
C1663       C  0.83428084  0.70272536  0.36803126     0.09700
C1664       C  0.82963602  0.74044264  0.36273449     0.35600
C1665       C  0.85725733  0.71043261  0.46970398     0.39100
C1666       C  0.81890058  0.69217455  0.36488742    -0.04500
C1667       C  0.81798293  0.67935276  0.34204820     0.02700
C1668       C  0.83250610  0.67701202  0.32260468    -0.04100
C1669       C  0.84777651  0.68773745  0.32551775    -0.00300
C1670       C  0.84864533  0.70060478  0.34814989    -0.02900
C1671       C  0.80445509  0.69395381  0.38604326     0.36400
C1672       C  0.86302056  0.68476581  0.30634639     0.40000
C1673       C  0.80244099  0.66810558  0.33912509     0.39100
C1674       C  0.86473113  0.71098814  0.35211785     0.36100
C1675       C  0.84524230  0.68818243  0.42357160     0.36700
C1676       C  0.84098119  0.76319622  0.40911395     0.40000
N1677       N  0.79010851  0.65903471  0.33675538    -0.38100
N1678       N  0.79300389  0.69526857  0.40310614    -0.39700
N1679       N  0.87522650  0.68226191  0.29124397    -0.37400
N1680       N  0.87756058  0.71923395  0.35542685    -0.39800
N1681       N  0.82547796  0.74628406  0.33989120    -0.39600
N1682       N  0.84219558  0.77818001  0.40381202    -0.37200
N1683       N  0.86561228  0.70233556  0.98887205    -0.38300
N1684       N  0.84708415  0.67296984  0.42535680    -0.39900
C1685       C  0.83184657  0.72696037  0.09182436    -0.04900
C1686       C  0.84723447  0.71888282  0.10387658     0.09300
C1687       C  0.86409091  0.72433086  0.09339218    -0.02200
C1688       C  0.86541668  0.73733715  0.07086737    -0.00500
C1689       C  0.85008931  0.74304282  0.05544219    -0.04100
C1690       C  0.83322270  0.73840131  0.06697218     0.02900
C1691       C  0.84568988  0.70465042  0.12736315     0.09700
C1692       C  0.88013026  0.71595964  0.10465235     0.35600
C1693       C  0.81720818  0.74557245  0.05365382     0.39100
C1694       C  0.83721010  0.68834805  0.12073097    -0.04500
C1695       C  0.83524593  0.67524966  0.14301698     0.02700
C1696       C  0.84337913  0.67742581  0.17130359    -0.04100
C1697       C  0.85258165  0.69345348  0.17741042    -0.00300
C1698       C  0.85282300  0.70731020  0.15622059    -0.02900
C1699       C  0.83065692  0.68492305  0.09079256     0.36400
C1700       C  0.86201673  0.69574240  0.20540148     0.40000
C1701       C  0.82443862  0.65971873  0.13697769     0.39100
C1702       C  0.86016515  0.72446484  0.16432729     0.36100
C1703       C  0.81455064  0.72319481  0.10460986     0.36700
C1704       C  0.88250380  0.74529893  0.06479295     0.40000
N1705       N  0.81571374  0.64740187  0.13213639    -0.38100
N1706       N  0.82544639  0.68220583  0.06690180    -0.39700
N1707       N  0.86954601  0.69772826  0.22769441    -0.37400
N1708       N  0.86597964  0.73817136  0.17072809    -0.39800
N1709       N  0.89293497  0.70923909  0.11349851    -0.39600
N1710       N  0.89625114  0.75192791  0.06187836    -0.37200
N1711       N  0.80420955  0.75132568  0.04378115    -0.38300
N1712       N  0.80076316  0.72015533  0.11480024    -0.39900
C1713       C  0.85010225  0.74795641  0.96966667     0.87100
C1714       C  0.84032773  0.76589986  0.97157716    -0.53100
C1715       C  0.84393227  0.77743165  0.49631423     0.10000
C1716       C  0.85864918  0.76891843  0.51602397     0.21000
C1717       C  0.86985207  0.75258239  0.96982561    -0.53900
C1718       C  0.87396501  0.76416934  0.49409403     0.10100
C1719       C  0.84618044  0.74000840  0.00068517    -0.53400
C1720       C  0.85056229  0.75085949  0.52519534     0.10700
H1721       H  0.82881115  0.76900927  0.95801998     0.15200
H1722       H  0.86282295  0.77725937  0.53524464     0.01000
H1723       H  0.87894206  0.74807257  0.95258664     0.15500
H1724       H  0.83809284  0.72852504  0.50452777     0.15300
N1725       N  0.84259443  0.62933059  0.70129488    -0.36000
N1726       N  0.83696449  0.65581603  0.74584862    -0.56600
N1727       N  0.83545696  0.62829442  0.79202415    -0.36000
N1728       N  0.84216878  0.60173365  0.74733753    -0.56600
C1729       C  0.84719773  0.64415894  0.68603020     0.27600
C1730       C  0.84942932  0.61527419  0.68648494     0.27600
C1731       C  0.83750095  0.64310884  0.80869652     0.27600
C1732       C  0.83979503  0.61429041  0.80949861     0.27600
C1733       C  0.83441061  0.66587641  0.72125666     0.36200
C1734       C  0.83090085  0.66534342  0.76919809     0.36200
C1735       C  0.84165537  0.59147457  0.72263174     0.36200
C1736       C  0.83843424  0.59097027  0.77062362     0.36200
C1737       C  0.85721819  0.63940563  0.66132884    -0.21300
C1738       C  0.85843953  0.62114716  0.66142923    -0.21300
C1739       C  0.84297432  0.63846280  0.83723944    -0.21300
C1740       C  0.84432241  0.62024115  0.83778066    -0.21300
C1741       C  0.82633517  0.68177425  0.72899428    -0.22300
C1742       C  0.82432559  0.68152478  0.75948295    -0.22300
C1743       C  0.83762091  0.57409868  0.73028413    -0.22300
C1744       C  0.83572624  0.57376303  0.76076249    -0.22300
C1745       C  0.84135375  0.66163562  0.69278978    -0.17700
C1746       C  0.84640824  0.59726076  0.69372402    -0.17700
C1747       C  0.83895961  0.59626997  0.80082352    -0.17700
C1748       C  0.83348965  0.66057748  0.79931111    -0.17700
H1749       H  0.86270651  0.64814085  0.64456806     0.15200
H1750       H  0.86505660  0.61308347  0.64481069     0.15200
H1751       H  0.84552071  0.64726453  0.85587271     0.15200
H1752       H  0.84818254  0.61229213  0.85682389     0.15200
H1753       H  0.82294013  0.69269651  0.71439239     0.13500
H1754       H  0.81908473  0.69219811  0.77306102     0.13500
H1755       H  0.83660726  0.56274776  0.71555489     0.13500
H1756       H  0.83292289  0.56216097  0.77416136     0.13500
H1757       H  0.83341065  0.62854490  0.71856723     0.26800
H1758       H  0.82967194  0.62770819  0.77094588     0.26800
C1759       C  0.85389016  0.20332747  0.53033467     0.87100
C1760       C  0.84103796  0.18763683  0.52766213    -0.53100
C1761       C  0.84433242  0.17652939  0.50431953     0.10000
C1762       C  0.85968098  0.18284598  0.98384073     0.21000
C1763       C  0.87255394  0.19491830  0.53062386    -0.53900
C1764       C  0.87623277  0.18334390  0.50749617     0.10100
C1765       C  0.85370348  0.21254249  0.49984206    -0.53400
C1766       C  0.85548257  0.20239636  0.97528913     0.10700
H1767       H  0.82999879  0.18567974  0.54284775     0.15200
H1768       H  0.86148901  0.17392361  0.96454247     0.01000
H1769       H  0.88228739  0.19865718  0.54736639     0.15500
H1770       H  0.85267575  0.22674929  0.49666721     0.15300
N1771       N  0.84201450  0.32423377  0.79938735    -0.36000
N1772       N  0.83779270  0.35169612  0.75400499    -0.56600
N1773       N  0.84397526  0.32523521  0.70826096    -0.36000
N1774       N  0.84703071  0.29783005  0.75367283    -0.56600
C1775       C  0.83517386  0.33777740  0.81556087     0.27600
C1776       C  0.83944420  0.30909550  0.81510864     0.27600
C1777       C  0.83820592  0.33904496  0.69155361     0.27600
C1778       C  0.84257232  0.31041129  0.69133715     0.27600
C1779       C  0.83932013  0.36196833  0.77863629     0.36200
C1780       C  0.84034263  0.36250161  0.73031216     0.36200
C1781       C  0.85192016  0.28828597  0.77786699     0.36200
C1782       C  0.85262636  0.28869375  0.72949738     0.36200
C1783       C  0.82815720  0.33122690  0.84189734    -0.21300
C1784       C  0.83059012  0.31308215  0.84139594    -0.21300
C1785       C  0.83314536  0.33295451  0.66359250    -0.21300
C1786       C  0.83585602  0.31485749  0.66347498    -0.21300
C1787       C  0.84255265  0.37942217  0.77055836    -0.22300
C1788       C  0.84329077  0.37974247  0.73992966    -0.22300
C1789       C  0.86091939  0.27310307  0.76896539    -0.22300
C1790       C  0.86116168  0.27325872  0.73827502    -0.22300
C1791       C  0.83665265  0.35596628  0.80817166    -0.17700
C1792       C  0.84642072  0.29217216  0.80740899    -0.17700
C1793       C  0.84849579  0.29327587  0.69972451    -0.17700
C1794       C  0.83897247  0.35713147  0.70011816    -0.17700
H1795       H  0.82210285  0.33874673  0.85978062     0.15200
H1796       H  0.82681786  0.30394612  0.85887946     0.15200
H1797       H  0.82831533  0.34079229  0.64504115     0.15200
H1798       H  0.83352638  0.30604665  0.64477562     0.15200
H1799       H  0.84407291  0.39077007  0.78517215     0.13500
H1800       H  0.84554796  0.39137120  0.72631075     0.13500
H1801       H  0.86619841  0.26269468  0.78305213     0.13500
H1802       H  0.86669932  0.26305315  0.72403140     0.13500
H1803       H  0.85008441  0.32563680  0.78075363     0.26800
H1804       H  0.85056945  0.32619790  0.72858236     0.26800
O1805       O  0.82716609  0.45923934  0.53044960    -0.73800
O1806       O  0.82972058  0.49718745  0.97426630    -0.73800
O1807       O  0.82603975  0.46130276  0.97493564    -0.73900
O1808       O  0.83016271  0.49508788  0.53031529    -0.74000
O1809       O  0.85968504  0.49337477  0.52635810    -0.73900
O1810       O  0.85546796  0.45780251  0.97241541    -0.73900
O1811       O  0.85904396  0.49372120  0.96967841    -0.73800
O1812       O  0.85674403  0.45746984  0.52874056    -0.73900
Ni1813     Ni  0.82652603  0.47721475  0.50028648     1.25400
Ni1814     Ni  0.85815453  0.47481699  0.49726262     1.25400
C1815       C  0.84179756  0.45246063  0.53963260     0.88400
C1816       C  0.84448672  0.50132495  0.96191693     0.88300
C1817       C  0.83973641  0.45342976  0.96426781     0.88300
C1818       C  0.84576855  0.50018292  0.53809915     0.88500
C1819       C  0.80494736  0.80227261  0.53088478     0.87100
C1820       C  0.82169898  0.79038543  0.53044532    -0.53100
C1821       C  0.83209113  0.79224154  0.50563928     0.10000
C1822       C  0.82615912  0.80509564  0.98099050     0.21000
C1823       C  0.81175080  0.82105217  0.52648876    -0.53900
C1824       C  0.82211867  0.82328517  0.50206958     0.10100
C1825       C  0.79579882  0.79722475  0.50119109    -0.53400
C1826       C  0.80714882  0.79790006  0.97507754     0.10700
H1827       H  0.82387678  0.77968389  0.54611353     0.15200
H1828       H  0.83461418  0.80637388  0.96090757     0.01000
H1829       H  0.80870792  0.83184294  0.54177518     0.15500
H1830       H  0.78244364  0.79185199  0.50026273     0.15300
N1831       N  0.68312927  0.78874851  0.70782832    -0.36000
N1832       N  0.65699461  0.78303675  0.75291023    -0.56600
N1833       N  0.68532881  0.78372786  0.79899754    -0.36000
N1834       N  0.71149919  0.78803137  0.75393299    -0.56600
C1835       C  0.66885828  0.78465927  0.69048771     0.27600
C1836       C  0.69784226  0.78700601  0.69079879     0.27600
C1837       C  0.67139516  0.77703765  0.81420170     0.27600
C1838       C  0.70022225  0.78007036  0.81498038     0.27600
C1839       C  0.64595270  0.78670546  0.72981211     0.36200
C1840       C  0.64725029  0.78458511  0.77801734     0.36200
C1841       C  0.72107383  0.79291383  0.72989866     0.36200
C1842       C  0.72212497  0.79046713  0.77804164     0.36200
C1843       C  0.67458486  0.78050984  0.66197457    -0.21300
C1844       C  0.69284213  0.78205746  0.66211725    -0.21300
C1845       C  0.67748668  0.76897459  0.84013456    -0.21300
C1846       C  0.69569228  0.77100342  0.84070547    -0.21300
C1847       C  0.62907406  0.79052356  0.74021544    -0.22300
C1848       C  0.62991985  0.78935427  0.77080181    -0.22300
C1849       C  0.73792490  0.79832277  0.73881144    -0.22300
C1850       C  0.73853678  0.79686853  0.76931777    -0.22300
C1851       C  0.65077932  0.78548807  0.69941909    -0.17700
C1852       C  0.71551719  0.79091598  0.69987784    -0.17700
C1853       C  0.71764390  0.78550659  0.80746118    -0.17700
C1854       C  0.65327342  0.77980883  0.80690860    -0.17700
H1855       H  0.66644850  0.77691931  0.64295424     0.15200
H1856       H  0.70142778  0.77992869  0.64310505     0.15200
H1857       H  0.66956821  0.76270032  0.85726979     0.15200
H1858       H  0.70456331  0.76644833  0.85813916     0.15200
H1859       H  0.61738162  0.79367903  0.72712970     0.13500
H1860       H  0.61890077  0.79132647  0.78593835     0.13500
H1861       H  0.74882087  0.80253277  0.72478879     0.13500
H1862       H  0.74990396  0.79974361  0.78336147     0.13500
H1863       H  0.68285173  0.79429960  0.72905108     0.26800
H1864       H  0.68436034  0.79227279  0.78086113     0.26800
C1865       C  0.25455994  0.80027765  0.97083784     0.87100
C1866       C  0.23847320  0.78756597  0.97274789    -0.53100
C1867       C  0.22747116  0.78934557  0.49765013     0.10000
C1868       C  0.23497383  0.80439970  0.51781970     0.21000
C1869       C  0.24555323  0.81857071  0.97336832    -0.53900
C1870       C  0.23557184  0.82087105  0.49720361     0.10100
C1871       C  0.26450626  0.79772532  0.00050588    -0.53400
C1872       C  0.25470792  0.79941836  0.52302986     0.10700
H1873       H  0.23607144  0.77704235  0.95693035     0.15200
H1874       H  0.22723395  0.80635958  0.53859636     0.01000
H1875       H  0.24575116  0.82869620  0.95627431     0.15500
H1876       H  0.27795735  0.79423081  0.49643020     0.15300
N1877       N  0.37656201  0.78357967  0.79205919    -0.36000
N1878       N  0.40364630  0.78062354  0.74707541    -0.56600
N1879       N  0.37660449  0.78705455  0.70084157    -0.36000
N1880       N  0.34940027  0.78859715  0.74619591    -0.56600
C1881       C  0.39029220  0.77727264  0.80852658     0.27600
C1882       C  0.36147990  0.78039150  0.80752657     0.27600
C1883       C  0.39055692  0.78203381  0.68377515     0.27600
C1884       C  0.36179174  0.78639404  0.68351955     0.27600
C1885       C  0.41430468  0.78127359  0.77146449     0.36200
C1886       C  0.41435200  0.78233382  0.72307648     0.36200
C1887       C  0.33991266  0.79262739  0.77085378     0.36200
C1888       C  0.33989529  0.79455134  0.72260839     0.36200
C1889       C  0.38391695  0.77001555  0.83476603    -0.21300
C1890       C  0.36570225  0.77176137  0.83397052    -0.21300
C1891       C  0.38458297  0.77846499  0.65505793    -0.21300
C1892       C  0.36644033  0.78104337  0.65498345    -0.21300
C1893       C  0.43188184  0.78311303  0.76295181    -0.22300
C1894       C  0.43193855  0.78366788  0.73231601    -0.22300
C1895       C  0.32436215  0.80133810  0.76291022    -0.22300
C1896       C  0.32428029  0.80241102  0.73229588    -0.22300
C1897       C  0.40846969  0.77888611  0.80116325    -0.17700
C1898       C  0.34436217  0.78695341  0.80002228    -0.17700
C1899       C  0.34439918  0.79149218  0.69241624    -0.17700
C1900       C  0.40865291  0.78176504  0.69288762    -0.17700
H1901       H  0.39159624  0.76416847  0.85268755     0.15200
H1902       H  0.35664003  0.76768010  0.85137869     0.15200
H1903       H  0.39246489  0.77453303  0.63599382     0.15200
H1904       H  0.35772639  0.77946581  0.63591500     0.15200
H1905       H  0.44347686  0.78364056  0.77727551     0.13500
H1906       H  0.44364918  0.78477661  0.71846523     0.13500
H1907       H  0.31393705  0.80599523  0.77757184     0.13500
H1908       H  0.31382222  0.80808638  0.71868814     0.13500
H1909       H  0.37763710  0.79173509  0.77345364     0.26800
H1910       H  0.37750280  0.79247995  0.72208839     0.26800
O1911       O  0.54922764  0.76506325  0.52806551    -0.73800
O1912       O  0.51194291  0.76238989  0.97162366    -0.73800
O1913       O  0.54793971  0.76345629  0.97065398    -0.73900
O1914       O  0.51305785  0.76485796  0.52975921    -0.74000
O1915       O  0.51201836  0.79438172  0.52635959    -0.73900
O1916       O  0.54810314  0.79284295  0.96760591    -0.73900
O1917       O  0.51205292  0.79175523  0.96546986    -0.73800
O1918       O  0.54817585  0.79462878  0.52753357    -0.73900
Ni1919     Ni  0.53045770  0.76315809  0.49877361     1.25400
Ni1920     Ni  0.53029432  0.79476307  0.49660455     1.25400
C1921       C  0.55473649  0.78012946  0.53774038     0.88400
C1922       C  0.50606236  0.77634905  0.95857210     0.88300
C1923       C  0.55408472  0.77772724  0.95916723     0.88300
C1924       C  0.50658513  0.77981807  0.53789051     0.88500
C1925       C  0.80461241  0.15015297  0.97373556     0.87100
C1926       C  0.82091516  0.16250460  0.97239495    -0.53100
C1927       C  0.83227425  0.16139712  0.49739206     0.10000
C1928       C  0.82620269  0.14775433  0.52116561     0.21000
C1929       C  0.81217359  0.13162622  0.97865176    -0.53900
C1930       C  0.82352051  0.12994630  0.50421847     0.10100
C1931       C  0.79616788  0.15550871  0.00382976    -0.53400
C1932       C  0.80724937  0.15396953  0.52908853     0.10700
H1933       H  0.82239004  0.17281373  0.95576416     0.15200
H1934       H  0.83532831  0.14688166  0.54060081     0.01000
H1935       H  0.80870174  0.12043055  0.96447867     0.15500
H1936       H  0.78307233  0.16053631  0.50641873     0.15300
N1937       N  0.68644999  0.16170582  0.70154795    -0.36000
N1938       N  0.71196799  0.15903552  0.74902561    -0.56600
N1939       N  0.68264474  0.15615876  0.79280679    -0.36000
N1940       N  0.65715425  0.16068942  0.74555222    -0.56600
C1941       C  0.70153785  0.16553304  0.68629490     0.27600
C1942       C  0.67249610  0.16632949  0.68415502     0.27600
C1943       C  0.69682121  0.15816781  0.81112695     0.27600
C1944       C  0.66776672  0.15891639  0.80929060     0.27600
C1945       C  0.72320897  0.15715704  0.72570308     0.36200
C1946       C  0.72120192  0.15430366  0.77359780     0.36200
C1947       C  0.64767041  0.15985043  0.71995022     0.36200
C1948       C  0.64561688  0.15738360  0.76806454     0.36200
C1949       C  0.69707234  0.17257093  0.65871726    -0.21300
C1950       C  0.67875489  0.17301336  0.65731770    -0.21300
C1951       C  0.69089969  0.16187809  0.83976262    -0.21300
C1952       C  0.67259834  0.16229968  0.83861877    -0.21300
C1953       C  0.73965327  0.15126070  0.73552879    -0.22300
C1954       C  0.73842759  0.14957811  0.76588789    -0.22300
C1955       C  0.62999025  0.15619940  0.72630754    -0.22300
C1956       C  0.62868623  0.15474999  0.75673679    -0.22300
C1957       C  0.71915073  0.16174608  0.69589460    -0.17700
C1958       C  0.65430245  0.16357260  0.69103108    -0.17700
C1959       C  0.64995676  0.15774695  0.79882825    -0.17700
C1960       C  0.71489825  0.15566284  0.80317516    -0.17700
H1961       H  0.70607026  0.17670102  0.64124289     0.15200
H1962       H  0.67092843  0.17757108  0.63853203     0.15200
H1963       H  0.69892466  0.16388953  0.85955509     0.15200
H1964       H  0.66386872  0.16475564  0.85733512     0.15200
H1965       H  0.75139459  0.14868485  0.72229291     0.13500
H1966       H  0.74909162  0.14551254  0.78062467     0.13500
H1967       H  0.61905944  0.15499737  0.71068567     0.13500
H1968       H  0.61661345  0.15218364  0.76908071     0.13500
H1969       H  0.68555748  0.15439459  0.72107656     0.26800
H1970       H  0.68317797  0.15134749  0.77113162     0.26800
C1971       C  0.25057574  0.14448724  0.53810517     0.87100
C1972       C  0.23677851  0.15962655  0.53416841    -0.53100
C1973       C  0.22802348  0.15947239  0.50730515     0.10000
C1974       C  0.23356807  0.14480200  0.98663058     0.21000
C1975       C  0.24029729  0.12744997  0.53172864    -0.53900
C1976       C  0.23113172  0.12696680  0.50534501     0.10100
C1977       C  0.26271634  0.14704535  0.51104430    -0.53400
C1978       C  0.25413423  0.14699748  0.98475083     0.10700
H1979       H  0.23499532  0.17050340  0.54967738     0.15200
H1980       H  0.22677743  0.14503446  0.96469391     0.01000
H1981       H  0.24045085  0.11639219  0.54726119     0.15500
H1982       H  0.27694779  0.14924701  0.51302752     0.15300
N1983       N  0.37633867  0.14794516  0.80256883    -0.36000
N1984       N  0.40287438  0.14679415  0.75430677    -0.56600
N1985       N  0.37487770  0.14802569  0.71076666    -0.36000
N1986       N  0.34829574  0.15071884  0.75928382    -0.56600
C1987       C  0.39166576  0.15085926  0.81761481     0.27600
C1988       C  0.36278528  0.15352181  0.82020991     0.27600
C1989       C  0.38906945  0.15120778  0.69280934     0.27600
C1990       C  0.35997017  0.15172845  0.69502988     0.27600
C1991       C  0.41320814  0.14236617  0.77779925     0.36200
C1992       C  0.41266475  0.14379184  0.72951882     0.36200
C1993       C  0.33833066  0.14845764  0.78420896     0.36200
C1994       C  0.33742200  0.14768317  0.73574076     0.36200
C1995       C  0.38785209  0.15833327  0.84517971    -0.21300
C1996       C  0.36963973  0.16012735  0.84672604    -0.21300
C1997       C  0.38304314  0.15689516  0.66520491    -0.21300
C1998       C  0.36472439  0.15695170  0.66642932    -0.21300
C1999       C  0.42963093  0.13640851  0.76789996    -0.22300
C2000       C  0.42931883  0.13742406  0.73729443    -0.22300
C2001       C  0.32106133  0.14408665  0.77641139    -0.22300
C2002       C  0.32041175  0.14385660  0.74583386    -0.22300
C2003       C  0.40887274  0.14582024  0.80793229    -0.17700
C2004       C  0.34439973  0.15141428  0.81382483    -0.17700
C2005       C  0.34224007  0.14930184  0.70522203    -0.17700
C2006       C  0.40721229  0.14807295  0.70016292    -0.17700
H2007       H  0.39721559  0.16194457  0.86252652     0.15200
H2008       H  0.36225405  0.16533408  0.86550009     0.15200
H2009       H  0.39098882  0.16023794  0.64591431     0.15200
H2010       H  0.35595963  0.16036066  0.64815073     0.15200
H2011       H  0.44087558  0.13233951  0.78137107     0.13500
H2012       H  0.44017786  0.13411383  0.72248356     0.13500
H2013       H  0.30998030  0.14156521  0.79115620     0.13500
H2014       H  0.30864419  0.14124224  0.73262807     0.13500
H2015       H  0.37520042  0.14053621  0.78306446     0.26800
H2016       H  0.37505713  0.14181936  0.73142055     0.26800
O2017       O  0.51144118  0.16994268  0.53162799    -0.73800
O2018       O  0.54612516  0.16773528  0.96844280    -0.73800
O2019       O  0.51025089  0.16426521  0.97278231    -0.73900
O2020       O  0.54726871  0.17437087  0.52694899    -0.74000
O2021       O  0.55016530  0.14517812  0.53371641    -0.73900
O2022       O  0.51387026  0.13489863  0.97446884    -0.73900
O2023       O  0.54991397  0.13851199  0.97267497    -0.73800
O2024       O  0.51427823  0.14075091  0.53573763    -0.73900
Ni2025     Ni  0.52813122  0.17100610  0.49899282     1.25400
Ni2026     Ni  0.53209440  0.13981499  0.50478833     1.25400
C2027       C  0.50699348  0.15532033  0.54425660     0.88400
C2028       C  0.55375556  0.15333392  0.96008373     0.88300
C2029       C  0.50591542  0.14863779  0.96419541     0.88300
C2030       C  0.55481946  0.16114626  0.53967339     0.88500
C2031       C  0.20166256  0.75351179  0.54015268     0.87100
C2032       C  0.21544677  0.76813622  0.53433476    -0.53100
C2033       C  0.21366109  0.77639894  0.50745665     0.10000
C2034       C  0.19898586  0.76902406  0.98819781     0.21000
C2035       C  0.18366771  0.76251023  0.53529288    -0.53900
C2036       C  0.18153782  0.77033540  0.50826721     0.10100
C2037       C  0.20442084  0.74117523  0.51301668    -0.53400
C2038       C  0.20259320  0.74866507  0.98495400     0.10700
H2039       H  0.22696351  0.77068059  0.54814188     0.15200
H2040       H  0.19660353  0.77650261  0.96751558     0.01000
H2041       H  0.17322159  0.76253017  0.55200693     0.15500
H2042       H  0.20899974  0.72769032  0.51630118     0.15300
N2043       N  0.21094323  0.62897576  0.80193278    -0.36000
N2044       N  0.20998409  0.60178923  0.75469082    -0.56600
N2045       N  0.21596441  0.62912002  0.71021434    -0.36000
N2046       N  0.21536189  0.65617676  0.75743954    -0.56600
C2047       C  0.20532163  0.61475565  0.81770440     0.27600
C2048       C  0.20820944  0.64362848  0.81896687     0.27600
C2049       C  0.21237985  0.61509227  0.69222377     0.27600
C2050       C  0.21375983  0.64404140  0.69378282     0.27600
C2051       C  0.21006183  0.59113631  0.77901134     0.36200
C2052       C  0.21300701  0.59121059  0.73071816     0.36200
C2053       C  0.21746875  0.66641584  0.78197767     0.36200
C2054       C  0.21948780  0.66645490  0.73383023     0.36200
C2055       C  0.19916490  0.62041143  0.84530619    -0.21300
C2056       C  0.20097120  0.63860744  0.84608284    -0.21300
C2057       C  0.20843264  0.62118129  0.66376940    -0.21300
C2058       C  0.20904676  0.63941117  0.66486363    -0.21300
C2059       C  0.21290543  0.57368340  0.77035995    -0.22300
C2060       C  0.21468976  0.57372445  0.73983348    -0.22300
C2061       C  0.22306421  0.68325505  0.77393290    -0.22300
C2062       C  0.22435153  0.68327931  0.74341471    -0.22300
C2063       C  0.20674804  0.59671108  0.80879483    -0.17700
C2064       C  0.21275662  0.66131472  0.81121557    -0.17700
C2065       C  0.21657263  0.66171029  0.70371660    -0.17700
C2066       C  0.21308377  0.59693667  0.70054172    -0.17700
H2067       H  0.19404892  0.61224500  0.86318037     0.15200
H2068       H  0.19749146  0.64714607  0.86461862     0.15200
H2069       H  0.20528889  0.61336400  0.64419667     0.15200
H2070       H  0.20651290  0.64823535  0.64629865     0.15200
H2071       H  0.21345728  0.56207440  0.78453048     0.13500
H2072       H  0.21682571  0.56216332  0.72593743     0.13500
H2073       H  0.22545323  0.69450041  0.78844790     0.13500
H2074       H  0.22786879  0.69457126  0.72974329     0.13500
H2075       H  0.21806972  0.62840423  0.78213806     0.26800
H2076       H  0.22121567  0.62847531  0.73165208     0.26800
C2077       C  0.20210556  0.19842708  0.96744648     0.87100
C2078       C  0.21604380  0.18346808  0.97184681    -0.53100
C2079       C  0.21513588  0.17382706  0.49879411     0.10000
C2080       C  0.19978218  0.18037417  0.51919120     0.21000
C2081       C  0.18463108  0.18814039  0.97133546    -0.53900
C2082       C  0.18292550  0.17924972  0.49927556     0.10100
C2083       C  0.20358615  0.21014947  0.99547844    -0.53400
C2084       C  0.20298956  0.20050291  0.52342952     0.10700
H2085       H  0.22598327  0.18005069  0.95528231     0.15200
H2086       H  0.19889152  0.17267446  0.54015915     0.01000
H2087       H  0.17455149  0.18649225  0.95435392     0.15500
H2088       H  0.20487788  0.22362717  0.49538049     0.15300
N2089       N  0.21339028  0.32383701  0.79096058    -0.36000
N2090       N  0.20949436  0.29573982  0.74695718    -0.56600
N2091       N  0.21230198  0.32169718  0.69933162    -0.36000
N2092       N  0.21772094  0.34968476  0.74362203    -0.56600
C2093       C  0.21620015  0.30932969  0.80817611     0.27600
C2094       C  0.21873563  0.33817313  0.80682253     0.27600
C2095       C  0.21303378  0.30638408  0.68346254     0.27600
C2096       C  0.21843736  0.33488888  0.68160181     0.27600
C2097       C  0.20569546  0.28657815  0.77203975     0.36200
C2098       C  0.20397513  0.28561560  0.72382431     0.36200
C2099       C  0.21623770  0.36100921  0.76696693     0.36200
C2100       C  0.21724860  0.35971470  0.71862393     0.36200
C2101       C  0.22348627  0.31453192  0.83525156    -0.21300
C2102       C  0.22477303  0.33273443  0.83461816    -0.21300
C2103       C  0.21946175  0.30993526  0.65511709    -0.21300
C2104       C  0.22285888  0.32790574  0.65394058    -0.21300
C2105       C  0.19766713  0.27057894  0.76482505    -0.22300
C2106       C  0.19657959  0.26996767  0.73425556    -0.22300
C2107       C  0.21507672  0.37832224  0.75676517    -0.22300
C2108       C  0.21574744  0.37750989  0.72616843    -0.22300
C2109       C  0.21088844  0.29176048  0.80111752    -0.17700
C2110       C  0.21739733  0.35606434  0.79737569    -0.17700
C2111       C  0.21919446  0.35319264  0.68913116    -0.17700
C2112       C  0.20725670  0.28946662  0.69347007    -0.17700
H2113       H  0.22702275  0.30613945  0.85392491     0.15200
H2114       H  0.22959238  0.34095522  0.85269985     0.15200
H2115       H  0.22139967  0.30057188  0.63707391     0.15200
H2116       H  0.22788653  0.33504359  0.63479607     0.15200
H2117       H  0.19337641  0.26026992  0.77997662     0.13500
H2118       H  0.19134988  0.25906393  0.72117347     0.13500
H2119       H  0.21420947  0.39032262  0.76998155     0.13500
H2120       H  0.21534144  0.38876545  0.71119936     0.13500
H2121       H  0.20622532  0.32422388  0.77112685     0.26800
H2122       H  0.20620491  0.32333198  0.71990812     0.26800
O2123       O  0.23130098  0.45887555  0.96760838    -0.73800
O2124       O  0.22783545  0.49670438  0.52705280    -0.73800
O2125       O  0.23509759  0.46119490  0.52605331    -0.73900
O2126       O  0.22491428  0.49443257  0.96758747    -0.74000
O2127       O  0.19598088  0.48975620  0.97497459    -0.73900
O2128       O  0.20634275  0.45550005  0.53350896    -0.73900
O2129       O  0.19916680  0.49105208  0.53484465    -0.73800
O2130       O  0.20242385  0.45392210  0.97442502    -0.73900
Ni2131     Ni  0.22958294  0.47891289  0.49647499     1.25400
Ni2132     Ni  0.19885079  0.47277318  0.50456383     1.25400
C2133       C  0.21711591  0.45028267  0.96114510     0.88400
C2134       C  0.21325270  0.50004827  0.54069962     0.88300
C2135       C  0.22277619  0.45243262  0.53910632     0.88300
C2136       C  0.20859527  0.49794465  0.96164456     0.88500
O2137       O  0.15162969  0.95359767  0.98524136    -0.73800
O2138       O  0.18556899  0.99079005  0.97540237    -0.73800
O2139       O  0.18698482  0.95390765  0.98148042    -0.73900
O2140       O  0.15020039  0.98933856  0.98030163    -0.74000
O2141       O  0.15273260  0.99148463  0.53352259    -0.73900
O2142       O  0.18973140  0.95691620  0.53166190    -0.73900
O2143       O  0.18768185  0.99360215  0.52566519    -0.73800
O2144       O  0.15418837  0.95567909  0.53876705    -0.73900
Ni2145     Ni  0.16869638  0.97180501  0.97883046     1.25400
Ni2146     Ni  0.17136765  0.97446914  0.53413093     1.25400
C2147       C  0.14681589  0.94835847  0.51602716     0.88400
C2148       C  0.19002173  0.99932475  0.49895649     0.88300
C2149       C  0.19268418  0.94819356  0.50763356     0.88300
C2150       C  0.14546195  0.99643610  0.50912960     0.88500
O2151       O  0.01329975  0.09783265  0.53467334    -0.73800
O2152       O  0.04656573  0.13626195  0.54104970    -0.73800
O2153       O  0.01003574  0.13326524  0.53693216    -0.73900
O2154       O  0.04911677  0.10100980  0.53929530    -0.74000
O2155       O  0.05020280  0.10113039  0.98526415    -0.73900
O2156       O  0.01163119  0.13447191  0.98183654    -0.73900
O2157       O  0.04854552  0.13649786  0.98668971    -0.73800
O2158       O  0.01453605  0.09889159  0.98007632    -0.73900
Ni2159     Ni  0.02965921  0.11718338  0.53973813     1.25400
Ni2160     Ni  0.03127234  0.11796565  0.98169783     1.25400
C2161       C  0.00810920  0.09270142  0.50878066     0.88400
C2162       C  0.05476232  0.14134683  0.51750773     0.88300
C2163       C  0.00392768  0.13837488  0.51168625     0.88300
C2164       C  0.05627715  0.09571901  0.51502809     0.88500
O2165       O  0.00880770  0.84876719  0.97868066    -0.73800
O2166       O  0.04577895  0.81431750  0.97417291    -0.73800
O2167       O  0.00904879  0.81340633  0.97650268    -0.73900
O2168       O  0.04484870  0.84982543  0.97744508    -0.74000
O2169       O  0.04388981  0.84926094  0.53208063    -0.73900
O2170       O  0.00981866  0.81166391  0.52803094    -0.73900
O2171       O  0.04680746  0.81423769  0.52630794    -0.73800
O2172       O  0.00790015  0.84729091  0.53322829    -0.73900
Ni2173     Ni  0.02708494  0.83149148  0.97496469     1.25400
Ni2174     Ni  0.02707860  0.83035117  0.53167076     1.25400
C2175       C  0.00143831  0.85410938  0.50933722     0.88400
C2176       C  0.05352915  0.81146529  0.50038241     0.88300
C2177       C  0.00222086  0.80789151  0.50318919     0.88300
C2178       C  0.04967031  0.85625412  0.50800045     0.88500
O2179       O  0.90512351  0.95737588  0.52159887    -0.73800
O2180       O  0.87006486  0.99375249  0.52722032    -0.73800
O2181       O  0.86983771  0.95686872  0.52300122    -0.73900
O2182       O  0.90564768  0.99329376  0.52501445    -0.74000
O2183       O  0.90649362  0.99302859  0.97278797    -0.73900
O2184       O  0.86825194  0.95972370  0.96861787    -0.73900
O2185       O  0.87085933  0.99627689  0.97366931    -0.73800
O2186       O  0.90370230  0.95709925  0.96863569    -0.73900
Ni2187     Ni  0.88755523  0.97530957  0.52595711     1.25400
Ni2188     Ni  0.88719068  0.97666991  0.96918444     1.25400
C2189       C  0.90974822  0.95127099  0.49614339     0.88400
C2190       C  0.86519521  0.00222384  0.50385207     0.88300
C2191       C  0.86477594  0.95090970  0.49750399     0.88300
C2192       C  0.91129508  0.99985844  0.50040149     0.88500
C2193       C  0.97680036  0.89628228  0.01547928    -0.04900
C2194       C  0.96104826  0.89417105  0.50514466     0.09300
C2195       C  0.95792129  0.87729887  0.49263357    -0.02200
C2196       C  0.97081887  0.86387286  0.49535982    -0.00500
C2197       C  0.98687942  0.86723882  0.51076582    -0.04100
C2198       C  0.99004653  0.88314064  0.01863006     0.02900
C2199       C  0.94742919  0.90838681  0.50165917     0.09700
C2200       C  0.94150509  0.87391136  0.47651647     0.35600
C2201       C  0.00612167  0.88697154  0.03537693     0.39100
C2202       C  0.94833108  0.92029715  0.47747971    -0.04500
C2203       C  0.93521385  0.93353318  0.47394119     0.02700
C2204       C  0.92167865  0.93548099  0.49558306    -0.04100
C2205       C  0.92000512  0.92244666  0.51824341    -0.00300
C2206       C  0.93298447  0.90914659  0.52148734    -0.02900
C2207       C  0.96285939  0.91893229  0.45635975     0.36400
C2208       C  0.90438299  0.92200197  0.53723231     0.40000
C2209       C  0.93537624  0.94446564  0.44740587     0.39100
C2210       C  0.93152416  0.89618435  0.54528596     0.36100
C2211       C  0.97907065  0.91349946  0.02946842     0.36700
C2212       C  0.96748095  0.84655673  0.48235941     0.40000
N2213       N  0.93538769  0.95258858  0.42552099    -0.38100
N2214       N  0.97451173  0.91786066  0.43963509    -0.39700
N2215       N  0.89186910  0.92151533  0.55219040    -0.37400
N2216       N  0.93038770  0.88582416  0.56422171    -0.39800
N2217       N  0.92838652  0.87130757  0.46370246    -0.39600
N2218       N  0.96462609  0.83281633  0.47186339    -0.37200
N2219       N  0.01897386  0.89001089  0.04867610    -0.38300
N2220       N  0.98085000  0.92727710  0.04051511    -0.39900
C2221       C  0.98075025  0.05086161  0.52142004    -0.04900
C2222       C  0.96554381  0.05451286  0.50408061     0.09300
C2223       C  0.96734577  0.06547108  0.98087135    -0.02200
C2224       C  0.98051334  0.07875658  0.98173221    -0.00500
C2225       C  0.99383902  0.07915615  0.50623733    -0.04100
C2226       C  0.99473508  0.06325596  0.52289039     0.02900
C2227       C  0.95101263  0.04113410  0.50211131     0.09700
C2228       C  0.95214415  0.06731438  0.96112707     0.35600
C2229       C  0.01024547  0.05921963  0.54081951     0.39100
C2230       C  0.93648905  0.04187341  0.52185098    -0.04500
C2231       C  0.92344464  0.02844583  0.52121436     0.02700
C2232       C  0.92492312  0.01414755  0.50081192    -0.04100
C2233       C  0.94306136  0.00791260  0.98397638    -0.00300
C2234       C  0.95668311  0.02072248  0.98398356    -0.02900
C2235       C  0.93480671  0.05670413  0.54232243     0.36400
C2236       C  0.94581949  0.99121827  0.96859915     0.40000
C2237       C  0.90811308  0.02987040  0.54064743     0.39100
C2238       C  0.97305694  0.01741251  0.96782135     0.36100
C2239       C  0.98206949  0.03416249  0.53740143     0.36700
C2240       C  0.97829119  0.09458650  0.96367865     0.40000
N2241       N  0.89588597  0.03112531  0.55612607    -0.38100
N2242       N  0.93338803  0.06862694  0.55844940    -0.39700
N2243       N  0.94831194  0.97796098  0.95627833    -0.37400
N2244       N  0.98612886  0.01476466  0.95498787    -0.39800
N2245       N  0.93998551  0.06876102  0.94544864    -0.39600
N2246       N  0.97645352  0.10724424  0.94939586    -0.37200
N2247       N  0.02245416  0.05558044  0.55528493    -0.38300
N2248       N  0.98314188  0.02078857  0.54994823    -0.39900
C2249       C  0.12686260  0.04207967  0.52564404    -0.04900
C2250       C  0.11015988  0.04108784  0.51158498     0.09300
C2251       C  0.10407855  0.02424460  0.99243329    -0.02200
C2252       C  0.11607519  0.00989390  0.99155437    -0.00500
C2253       C  0.13318439  0.01168464  0.50982123    -0.04100
C2254       C  0.13844605  0.02747443  0.52457289     0.02900
C2255       C  0.09754518  0.05615575  0.51409687     0.09700
C2256       C  0.08663306  0.02264895  0.97884191     0.35600
C2257       C  0.15589336  0.02890039  0.53829629     0.39100
C2258       C  0.09585754  0.06815214  0.98651052    -0.04500
C2259       C  0.08345018  0.08210115  0.98797745     0.02700
C2260       C  0.07141367  0.08297905  0.51618229    -0.04100
C2261       C  0.07264629  0.07023128  0.53942947    -0.00300
C2262       C  0.08532791  0.05655894  0.53776907    -0.02900
C2263       C  0.10848334  0.06722692  0.96211204     0.36400
C2264       C  0.06131697  0.07116331  0.56553340     0.40000
C2265       C  0.08421037  0.09609347  0.96578512     0.39100
C2266       C  0.08587956  0.04282162  0.56046085     0.36100
C2267       C  0.13200954  0.05810722  0.54145681     0.36700
C2268       C  0.11073257  0.99319242  0.97812641     0.40000
N2269       N  0.08493273  0.10731062  0.94821263    -0.38100
N2270       N  0.11863043  0.06645179  0.94278311    -0.39700
N2271       N  0.05269603  0.07202733  0.58684728    -0.37400
N2272       N  0.08635663  0.03185493  0.57849887    -0.39800
N2273       N  0.07270064  0.02144831  0.96802090    -0.39600
N2274       N  0.10644407  0.97982308  0.96760475    -0.37200
N2275       N  0.16975260  0.03009199  0.54937826    -0.38300
N2276       N  0.13608754  0.07087295  0.55411615    -0.39900
C2277       C  0.12345020  0.90513715  0.99572431    -0.04900
C2278       C  0.10666115  0.90781717  0.51884520     0.09300
C2279       C  0.10512943  0.92280929  0.53759028    -0.02200
C2280       C  0.11863706  0.93582558  0.53789950    -0.00500
C2281       C  0.13381358  0.93373017  0.51967179    -0.04100
C2282       C  0.13680778  0.91819540  0.99703209     0.02900
C2283       C  0.09180260  0.89474022  0.51645524     0.09700
C2284       C  0.08942835  0.92497853  0.55596935     0.35600
C2285       C  0.15337101  0.91543181  0.98110476     0.39100
C2286       C  0.09422133  0.87794605  0.02473223    -0.04500
C2287       C  0.08088752  0.86494071  0.02168160     0.02700
C2288       C  0.06431715  0.86940112  0.51004590    -0.04100
C2289       C  0.06355824  0.88554496  0.49406985    -0.00300
C2290       C  0.07728039  0.89816978  0.49730104    -0.02900
C2291       C  0.10939011  0.87474632  0.04406703     0.36400
C2292       C  0.04860383  0.88930843  0.47458609     0.40000
C2293       C  0.08323020  0.84780338  0.03594100     0.39100
C2294       C  0.07658868  0.91469169  0.48076398     0.36100
C2295       C  0.12602211  0.88934096  0.97767293     0.36700
C2296       C  0.11645198  0.95173970  0.55576069     0.40000
N2297       N  0.08521927  0.83409931  0.04709759    -0.38100
N2298       N  0.12151589  0.87220129  0.05942140    -0.39700
N2299       N  0.03672256  0.89228232  0.45891305    -0.37400
N2300       N  0.07611409  0.92790099  0.46764206    -0.39800
N2301       N  0.07686692  0.92664286  0.57057637    -0.39600
N2302       N  0.11466602  0.96444208  0.56999651    -0.37200
N2303       N  0.16656826  0.91326438  0.96838051    -0.38300
N2304       N  0.12801533  0.87671804  0.96332170    -0.39900
C2305       C  0.20204032  0.39124198  0.85328298    -0.04900
C2306       C  0.21818547  0.39576231  0.86767110     0.09300
C2307       C  0.23420171  0.38780010  0.85778782    -0.02200
C2308       C  0.23404124  0.37564268  0.83376393    -0.00500
C2309       C  0.21779405  0.37036043  0.82072240    -0.04100
C2310       C  0.20181610  0.37839914  0.83027702     0.02900
C2311       C  0.21837629  0.40946498  0.89226953     0.09700
C2312       C  0.25088271  0.39200388  0.87244477     0.35600
C2313       C  0.18516174  0.37368203  0.81595127     0.39100
C2314       C  0.21006085  0.40608347  0.91996664    -0.04500
C2315       C  0.20914851  0.41950232  0.94209698     0.02700
C2316       C  0.21782716  0.43600153  0.93776812    -0.04100
C2317       C  0.22753887  0.43864439  0.91104216    -0.00300
C2318       C  0.22682483  0.42597492  0.88782013    -0.02900
C2319       C  0.20276133  0.38862525  0.92591291     0.36400
C2320       C  0.23849570  0.45430352  0.90720463     0.40000
C2321       C  0.20009408  0.41586545  0.96997697     0.39100
C2322       C  0.23448711  0.43012372  0.85896813     0.36100
C2323       C  0.18566659  0.40005299  0.86180985     0.36700
C2324       C  0.25060493  0.36867057  0.82207184     0.40000
N2325       N  0.19294690  0.41287673  0.99225534    -0.38100
N2326       N  0.19703673  0.37466141  0.93067103    -0.39700
N2327       N  0.24739318  0.46668961  0.90411254    -0.37400
N2328       N  0.24052214  0.43340315  0.83589720    -0.39800
N2329       N  0.26423416  0.39538701  0.88399670    -0.39600
N2330       N  0.26375264  0.36314495  0.81242272    -0.37200
N2331       N  0.17190739  0.37001241  0.80432851    -0.38300
N2332       N  0.17261885  0.40709232  0.86867440    -0.39900
C2333       C  0.23081071  0.40633300  0.57032314    -0.04900
C2334       C  0.22856336  0.40938864  0.60116485     0.09300
C2335       C  0.22750790  0.42702196  0.61180643    -0.02200
C2336       C  0.22701486  0.44134592  0.59149854    -0.00500
C2337       C  0.22732404  0.43809883  0.56051443    -0.04100
C2338       C  0.23040506  0.42068555  0.55008685     0.02900
C2339       C  0.22664401  0.39406643  0.62231364     0.09700
C2340       C  0.22674286  0.43038870  0.64363698     0.35600
C2341       C  0.23373748  0.41761090  0.51867791     0.39100
C2342       C  0.24113340  0.38842773  0.63999071    -0.04500
C2343       C  0.23885625  0.37478008  0.66125332     0.02700
C2344       C  0.22211760  0.36650559  0.66470852    -0.04100
C2345       C  0.20782453  0.37168104  0.64616746    -0.00300
C2346       C  0.21006683  0.38542577  0.62511711    -0.02900
C2347       C  0.25836500  0.39672348  0.63623284     0.36400
C2348       C  0.19066659  0.36313601  0.64933212     0.40000
C2349       C  0.25366722  0.36937463  0.67989855     0.39100
C2350       C  0.19522406  0.39091050  0.60657636     0.36100
C2351       C  0.23341589  0.38838632  0.55948082     0.36700
C2352       C  0.22703056  0.45943938  0.60245283     0.40000
N2353       N  0.26546480  0.36508585  0.69486409    -0.38100
N2354       N  0.27210522  0.40335335  0.63308617    -0.39700
N2355       N  0.17700184  0.35626292  0.65187940    -0.37400
N2356       N  0.18343204  0.39529715  0.59167748    -0.39800
N2357       N  0.22626343  0.43306878  0.66905502    -0.39600
N2358       N  0.22760109  0.47383276  0.61141987    -0.37200
N2359       N  0.23691040  0.41507363  0.49378768    -0.38300
N2360       N  0.23553146  0.37405134  0.55088861    -0.39900
C2361       C  0.10198466  0.15265332  0.54304702    -0.04900
C2362       C  0.10867898  0.16123169  0.51755462     0.09300
C2363       C  0.09699402  0.16536503  0.99048166    -0.02200
C2364       C  0.07883858  0.16037055  0.99080445    -0.00500
C2365       C  0.07226980  0.15088681  0.51994957    -0.04100
C2366       C  0.08400582  0.14726415  0.54419633     0.02900
C2367       C  0.12815275  0.16548734  0.51539582     0.09700
C2368       C  0.10428859  0.17439720  0.96469337     0.35600
C2369       C  0.07816612  0.13703162  0.56976590     0.39100
C2370       C  0.14054499  0.15238702  0.00800572    -0.04500
C2371       C  0.15873982  0.15685036  0.00474085     0.02700
C2372       C  0.16474323  0.17385947  0.50899070    -0.04100
C2373       C  0.15228197  0.18719310  0.51685512    -0.00300
C2374       C  0.13411960  0.18299771  0.52011756    -0.02900
C2375       C  0.13488984  0.13408905  0.00477601     0.36400
C2376       C  0.15800835  0.20544895  0.52071708     0.40000
C2377       C  0.17155833  0.14334004  0.99660535     0.39100
C2378       C  0.12142794  0.19682477  0.52752614     0.36100
C2379       C  0.11387796  0.14884489  0.56778364     0.36700
C2380       C  0.06760977  0.16513502  0.96569280     0.40000
N2381       N  0.18175864  0.13259253  0.98976009    -0.38100
N2382       N  0.13034186  0.11948193  0.00241052    -0.39700
N2383       N  0.16241815  0.22004130  0.52394398    -0.37400
N2384       N  0.11128100  0.20786707  0.53322591    -0.39800
N2385       N  0.11014039  0.18164836  0.94419928    -0.39600
N2386       N  0.05869326  0.16896215  0.94562141    -0.37200
N2387       N  0.07365723  0.12883269  0.59021472    -0.38300
N2388       N  0.12342532  0.14580968  0.58741158    -0.39900
C2389       C  0.19146455  0.22822072  0.89759894    -0.04900
C2390       C  0.20806732  0.23614440  0.89200164     0.09300
C2391       C  0.22269752  0.23124462  0.90979910    -0.02200
C2392       C  0.22090509  0.21806173  0.93206674    -0.00500
C2393       C  0.20401834  0.21045886  0.93911402    -0.04100
C2394       C  0.18904347  0.21719996  0.92276069     0.02900
C2395       C  0.20961289  0.25083258  0.86929937     0.09700
C2396       C  0.23957180  0.24037419  0.90612256     0.35600
C2397       C  0.17097368  0.21582246  0.93365807     0.39100
C2398       C  0.19958128  0.26662686  0.87277263    -0.04500
C2399       C  0.19937501  0.27954398  0.85002889     0.02700
C2400       C  0.21090623  0.27795544  0.82532308    -0.04100
C2401       C  0.22225050  0.26301538  0.82333368    -0.00300
C2402       C  0.22086299  0.24906992  0.84421031    -0.02900
C2403       C  0.18955317  0.26969857  0.89992965     0.36400
C2404       C  0.23555688  0.26212360  0.80000357     0.40000
C2405       C  0.18697462  0.29426828  0.85175425     0.39100
C2406       C  0.23081906  0.23281237  0.83952055     0.36100
C2407       C  0.17645382  0.23227401  0.87826617     0.36700
C2408       C  0.23663835  0.21354050  0.94888625     0.40000
N2409       N  0.17703811  0.30597811  0.85302608    -0.38100
N2410       N  0.18159347  0.27215161  0.92161867    -0.39700
N2411       N  0.24629430  0.26152803  0.78157978    -0.37400
N2412       N  0.23881111  0.21986919  0.83579281    -0.39800
N2413       N  0.25303294  0.24759432  0.90322856    -0.39600
N2414       N  0.24963085  0.21033121  0.96152395    -0.37200
N2415       N  0.15640349  0.21518523  0.94187396    -0.38300
N2416       N  0.16451575  0.23559521  0.86291733    -0.39900
C2417       C  0.21672548  0.24683641  0.64979319    -0.04900
C2418       C  0.20288207  0.24693128  0.62845223     0.09300
C2419       C  0.18992376  0.26050219  0.62941030    -0.02200
C2420       C  0.19126003  0.27430586  0.65070494    -0.00500
C2421       C  0.20553874  0.27461234  0.67124705    -0.04100
C2422       C  0.21810263  0.26063551  0.67099644     0.02900
C2423       C  0.20335402  0.23405884  0.60280840     0.09700
C2424       C  0.17542714  0.26043352  0.60804233     0.35600
C2425       C  0.23272073  0.26067365  0.69215509     0.39100
C2426       C  0.19232605  0.21894712  0.60203795    -0.04500
C2427       C  0.19279911  0.20717039  0.57728224     0.02700
C2428       C  0.20440543  0.21048464  0.55282331    -0.04100
C2429       C  0.21656857  0.22487067  0.55545921    -0.00300
C2430       C  0.21550900  0.23688597  0.57951385    -0.02900
C2431       C  0.18029504  0.21569710  0.62668751     0.36400
C2432       C  0.23086385  0.22718520  0.53420089     0.40000
C2433       C  0.18122428  0.19183113  0.57768798     0.39100
C2434       C  0.22678011  0.25253983  0.58006135     0.36100
C2435       C  0.22982480  0.23269481  0.64936643     0.36700
C2436       C  0.17804991  0.28832475  0.65136739     0.40000
N2437       N  0.17198189  0.17958464  0.57911357    -0.38100
N2438       N  0.17067402  0.21315226  0.64633520    -0.39700
N2439       N  0.24247779  0.22950476  0.51780977    -0.37400
N2440       N  0.23563801  0.26508825  0.58057867    -0.39800
N2441       N  0.16381099  0.26030843  0.59106648    -0.39600
N2442       N  0.16758428  0.29958580  0.65194108    -0.37200
N2443       N  0.24435428  0.26068030  0.70909338    -0.38300
N2444       N  0.24026780  0.22141106  0.64888525    -0.39900
C2445       C  0.20481835  0.52609253  0.61292976    -0.04900
C2446       C  0.21317055  0.54250290  0.60678172     0.09300
C2447       C  0.22101989  0.54509319  0.57849850    -0.02200
C2448       C  0.22132031  0.53117986  0.55725288    -0.00500
C2449       C  0.21279463  0.51477491  0.56327007    -0.04100
C2450       C  0.20405215  0.51258754  0.59097902     0.02900
C2451       C  0.21334810  0.55708128  0.62999716     0.09700
C2452       C  0.22848966  0.56225501  0.57097097     0.35600
C2453       C  0.19445157  0.49634297  0.59731938     0.39100
C2454       C  0.22940211  0.56223427  0.64411128    -0.04500
C2455       C  0.22930352  0.57524397  0.66693953     0.02700
C2456       C  0.21316889  0.58314855  0.67613801    -0.04100
C2457       C  0.19719735  0.57830059  0.66158924    -0.00300
C2458       C  0.19732142  0.56554067  0.63841990    -0.02900
C2459       C  0.24608316  0.55425100  0.63499470     0.36400
C2460       C  0.18064265  0.58675254  0.67011000     0.40000
C2461       C  0.24585165  0.58061682  0.68092838     0.39100
C2462       C  0.18095621  0.56131949  0.62278117     0.36100
C2463       C  0.19716505  0.52301020  0.64215421     0.36700
C2464       C  0.22989628  0.53409578  0.52868791     0.40000
N2465       N  0.25905053  0.58493361  0.69208724    -0.38100
N2466       N  0.25941978  0.54806557  0.62740709    -0.39700
N2467       N  0.16747883  0.59365329  0.67673374    -0.37400
N2468       N  0.16793370  0.55790238  0.61023830    -0.39800
N2469       N  0.23443716  0.57593931  0.56489861    -0.39600
N2470       N  0.23673069  0.53641736  0.50591103    -0.37200
N2471       N  0.18671226  0.48343327  0.60243931    -0.38300
N2472       N  0.19106387  0.52061242  0.66548351    -0.39900
C2473       C  0.20762356  0.52352943  0.88868941    -0.04900
C2474       C  0.20296621  0.54071231  0.89843869     0.09300
C2475       C  0.19823208  0.54340080  0.92859989    -0.02200
C2476       C  0.19918843  0.52917817  0.94917179    -0.00500
C2477       C  0.20450577  0.51211615  0.93951791    -0.04100
C2478       C  0.20749583  0.50917073  0.90884677     0.02900
C2479       C  0.20331435  0.55589356  0.87675834     0.09700
C2480       C  0.19280694  0.56089551  0.93852111     0.35600
C2481       C  0.20873828  0.49125394  0.89744624     0.39100
C2482       C  0.18882445  0.55889736  0.85727742    -0.04500
C2483       C  0.18975489  0.57237521  0.83540626     0.02700
C2484       C  0.20529813  0.58276420  0.83258081    -0.04100
C2485       C  0.21976043  0.57973859  0.85209580    -0.00300
C2486       C  0.21872557  0.56645207  0.87419758    -0.02900
C2487       C  0.17312877  0.54781402  0.85936283     0.36400
C2488       C  0.23595109  0.58997373  0.84871915     0.40000
C2489       C  0.17483240  0.57542588  0.81552699     0.39100
C2490       C  0.23373175  0.56326584  0.89383569     0.36100
C2491       C  0.21323226  0.52077484  0.85808100     0.36700
C2492       C  0.19461824  0.53206526  0.98021377     0.40000
N2493       N  0.16294888  0.57783244  0.79958661    -0.38100
N2494       N  0.16066093  0.53887846  0.86096699    -0.39700
N2495       N  0.24884601  0.59814882  0.84579497    -0.37400
N2496       N  0.24569531  0.56068321  0.90952097    -0.39800
N2497       N  0.18848110  0.57487629  0.94640134    -0.39600
N2498       N  0.18891216  0.53649671  0.50461620    -0.37200
N2499       N  0.20880188  0.47711121  0.88740332    -0.38300
N2500       N  0.21798546  0.51873483  0.83377552    -0.39900
C2501       C  0.10291684  0.80625967  0.97566340    -0.04900
C2502       C  0.10913812  0.79580777  0.49584129     0.09300
C2503       C  0.09766492  0.78760706  0.51656371    -0.02200
C2504       C  0.07937091  0.79205760  0.51743637    -0.00500
C2505       C  0.07229442  0.80480013  0.49746073    -0.04100
C2506       C  0.08459412  0.81028787  0.97456509     0.02900
C2507       C  0.12857922  0.79112329  0.49537072     0.09700
C2508       C  0.10486404  0.77469796  0.53730880     0.35600
C2509       C  0.07843398  0.82300088  0.95251450     0.39100
C2510       C  0.14063894  0.79997206  0.51440298    -0.04500
C2511       C  0.15831438  0.79381822  0.51725441     0.02700
C2512       C  0.16426073  0.77907037  0.50039193    -0.04100
C2513       C  0.15423011  0.77201171  0.97871205    -0.00300
C2514       C  0.13621677  0.77725209  0.97643524    -0.02900
C2515       C  0.13471090  0.81523086  0.53144631     0.36400
C2516       C  0.16094441  0.75878809  0.95816686     0.40000
C2517       C  0.17027075  0.80227908  0.53836666     0.39100
C2518       C  0.12490509  0.76966891  0.95345732     0.36100
C2519       C  0.11525660  0.81555660  0.95634671     0.36700
C2520       C  0.06789390  0.78340521  0.53888159     0.40000
N2521       N  0.17987904  0.80890502  0.55522669    -0.38100
N2522       N  0.12998713  0.82748696  0.54485859    -0.39700
N2523       N  0.16556670  0.74823444  0.94109462    -0.37400
N2524       N  0.11585341  0.76365436  0.93514612    -0.39800
N2525       N  0.11077086  0.76444893  0.55379345    -0.39600
N2526       N  0.05880323  0.77647021  0.55608780    -0.37200
N2527       N  0.07362040  0.83298903  0.93462903    -0.38300
N2528       N  0.12508245  0.82310776  0.94112493    -0.39900
C2529       C  0.19731857  0.70157452  0.66262638    -0.04900
C2530       C  0.21033762  0.70460510  0.64059608     0.09300
C2531       C  0.22583017  0.69401592  0.63994954    -0.02200
C2532       C  0.22797051  0.68001684  0.66054950    -0.00500
C2533       C  0.21457560  0.67652046  0.68175955    -0.04100
C2534       C  0.19930745  0.68745237  0.68287724     0.02900
C2535       C  0.20710447  0.71820531  0.61689932     0.09700
C2536       C  0.23952405  0.69755203  0.61803717     0.35600
C2537       C  0.18558714  0.68409259  0.70488024     0.39100
C2538       C  0.21533008  0.73498811  0.61823775    -0.04500
C2539       C  0.21257073  0.74752196  0.59515243     0.02700
C2540       C  0.20202479  0.74295596  0.56985873    -0.04100
C2541       C  0.19113334  0.72757898  0.57229431    -0.00300
C2542       C  0.19456265  0.71475630  0.59431094    -0.02900
C2543       C  0.22615257  0.73950254  0.64398126     0.36400
C2544       C  0.17525512  0.72568840  0.55413225     0.40000
C2545       C  0.21823260  0.76563711  0.60026579     0.39100
C2546       C  0.18513954  0.69794146  0.59369379     0.36100
C2547       C  0.18187808  0.71307156  0.66445703     0.36700
C2548       C  0.24393704  0.66922977  0.66004926     0.40000
N2549       N  0.22259227  0.78011172  0.60495097    -0.38100
N2550       N  0.23467547  0.74306123  0.66466580    -0.39700
N2551       N  0.16217936  0.72456020  0.54058482    -0.37400
N2552       N  0.17768275  0.68451394  0.59320609    -0.39800
N2553       N  0.25048445  0.70049881  0.60065864    -0.39600
N2554       N  0.25666016  0.66058726  0.65967968    -0.37200
N2555       N  0.17475037  0.68140910  0.72259532    -0.38300
N2556       N  0.16959061  0.72227800  0.66595352    -0.39900
C2557       C  0.20150607  0.70797886  0.93175771    -0.04900
C2558       C  0.20747318  0.71502452  0.90468002     0.09300
C2559       C  0.21025651  0.73342266  0.90237168    -0.02200
C2560       C  0.20819327  0.74467811  0.92765654    -0.00500
C2561       C  0.20315645  0.73756557  0.95606786    -0.04100
C2562       C  0.19854668  0.71909081  0.95663592     0.02900
C2563       C  0.20970695  0.70280772  0.87836495     0.09700
C2564       C  0.21502836  0.74078760  0.87356340     0.35600
C2565       C  0.18926645  0.71107484  0.98145424     0.39100
C2566       C  0.19538241  0.69994919  0.85850653    -0.04500
C2567       C  0.19637870  0.68644074  0.83665685     0.02700
C2568       C  0.21166823  0.67558648  0.83460328    -0.04100
C2569       C  0.22613878  0.67870028  0.85404367    -0.00300
C2570       C  0.22518803  0.69229690  0.87575362    -0.02900
C2571       C  0.17940493  0.71060625  0.86122974     0.36400
C2572       C  0.24192431  0.66773567  0.85186956     0.40000
C2573       C  0.18151467  0.68342650  0.81663355     0.39100
C2574       C  0.23997261  0.69526952  0.89595812     0.36100
C2575       C  0.19800708  0.68902078  0.93374723     0.36700
C2576       C  0.21038336  0.76350607  0.92273658     0.40000
N2577       N  0.16965412  0.68099089  0.80065743    -0.38100
N2578       N  0.16668903  0.71915207  0.86352044    -0.39700
N2579       N  0.25448572  0.65892152  0.85013205    -0.37400
N2580       N  0.25172984  0.69769608  0.91215318    -0.39800
N2581       N  0.21868556  0.74668019  0.85054955    -0.39600
N2582       N  0.21181277  0.77841391  0.91695769    -0.37200
N2583       N  0.18266943  0.70260473  0.50126977    -0.38300
N2584       N  0.19530678  0.67392872  0.93521253    -0.39900
C2585       C  0.47868213  0.14075212  0.61198351    -0.04900
C2586       C  0.46518657  0.15380505  0.61256651     0.09300
C2587       C  0.46595305  0.16783794  0.59175301    -0.02200
C2588       C  0.48000304  0.16891009  0.57077926    -0.00500
C2589       C  0.49300266  0.15518537  0.56869480    -0.04100
C2590       C  0.49215717  0.14111550  0.58987607     0.02900
C2591       C  0.44999186  0.15258762  0.63470622     0.09700
C2592       C  0.45190585  0.18105302  0.59140344     0.35600
C2593       C  0.50527467  0.12698212  0.58965659     0.39100
C2594       C  0.44816871  0.16521338  0.65793072    -0.04500
C2595       C  0.43376397  0.16418415  0.67816942     0.02700
C2596       C  0.42143989  0.15001546  0.67653824    -0.04100
C2597       C  0.42322723  0.13741409  0.65331718    -0.00300
C2598       C  0.43717122  0.13889854  0.63222689    -0.02900
C2599       C  0.46121674  0.17924954  0.66119250     0.36400
C2600       C  0.41076658  0.12280223  0.65124205     0.40000
C2601       C  0.43138479  0.17795849  0.70044841     0.39100
C2602       C  0.43822708  0.12641707  0.60763740     0.36100
C2603       C  0.47875128  0.12688735  0.63443647     0.36700
C2604       C  0.48058905  0.18416170  0.55107759     0.40000
N2605       N  0.42935200  0.18900457  0.71808301    -0.38100
N2606       N  0.47157344  0.19050661  0.66372347    -0.39700
N2607       N  0.40077738  0.11117034  0.64953158    -0.37400
N2608       N  0.43914450  0.11650468  0.58795213    -0.39800
N2609       N  0.44069637  0.19158070  0.59117541    -0.39600
N2610       N  0.48095996  0.19639576  0.53549761    -0.37200
N2611       N  0.51567125  0.11564619  0.58959171    -0.38300
N2612       N  0.47881078  0.11583518  0.65234377    -0.39900
C2613       C  0.46151757  0.15364246  0.92442974    -0.04900
C2614       C  0.46492927  0.14491873  0.89721032     0.09300
C2615       C  0.48159043  0.13684008  0.89232573    -0.02200
C2616       C  0.49493172  0.13772131  0.91447256    -0.00500
C2617       C  0.49156719  0.14656315  0.94172462    -0.04100
C2618       C  0.47466592  0.15416962  0.94683224     0.02900
C2619       C  0.45100018  0.14466372  0.87344090     0.09700
C2620       C  0.48509762  0.12805124  0.86414640     0.35600
C2621       C  0.47046490  0.16196461  0.97552117     0.39100
C2622       C  0.44997527  0.15872175  0.85277143    -0.04500
C2623       C  0.43626587  0.15906217  0.83133512     0.02700
C2624       C  0.42352992  0.14530487  0.83043951    -0.04100
C2625       C  0.42480536  0.13101807  0.85069119    -0.00300
C2626       C  0.43851712  0.13071382  0.87219111    -0.02900
C2627       C  0.46305592  0.17284383  0.85367761     0.36400
C2628       C  0.41212895  0.11655107  0.84908980     0.40000
C2629       C  0.43521573  0.17357254  0.81016726     0.39100
C2630       C  0.43985042  0.11606895  0.89303860     0.36100
C2631       C  0.44456901  0.16243822  0.92906107     0.36700
C2632       C  0.51232332  0.13013138  0.90873600     0.40000
N2633       N  0.43439032  0.18505528  0.79310054    -0.38100
N2634       N  0.47353667  0.18407140  0.85441705    -0.39700
N2635       N  0.40202132  0.10500458  0.84771744    -0.37400
N2636       N  0.44098009  0.10437325  0.90964748    -0.39800
N2637       N  0.48784547  0.12109299  0.84158722    -0.39600
N2638       N  0.52622150  0.12412377  0.90417969    -0.37200
N2639       N  0.46442339  0.16077489  0.50166274    -0.38300
N2640       N  0.43111791  0.16959439  0.93260997    -0.39900
C2641       C  0.20478954  0.08439726  0.51819969    -0.04900
C2642       C  0.20970227  0.07442217  0.49284555     0.09300
C2643       C  0.21695784  0.08417271  0.96820964    -0.02200
C2644       C  0.22068629  0.10259834  0.97011441    -0.00500
C2645       C  0.21995792  0.11075317  0.49799016    -0.04100
C2646       C  0.21005414  0.10234147  0.52097002     0.02900
C2647       C  0.20605157  0.05467585  0.49178478     0.09700
C2648       C  0.22102318  0.07454555  0.94104932     0.35600
C2649       C  0.20486133  0.11230839  0.54730077     0.39100
C2650       C  0.19210635  0.04854726  0.97432558    -0.04500
C2651       C  0.18795681  0.03024189  0.97478760     0.02700
C2652       C  0.19702654  0.01780318  0.49409005    -0.04100
C2653       C  0.21125650  0.02456366  0.51137179    -0.00300
C2654       C  0.21586042  0.04280127  0.50995079    -0.02900
C2655       C  0.18123452  0.06069139  0.95697114     0.36400
C2656       C  0.22113600  0.01275853  0.53082189     0.40000
C2657       C  0.17306533  0.02408159  0.95693197     0.39100
C2658       C  0.23059763  0.04945429  0.52760118     0.36100
C2659       C  0.19424291  0.07616737  0.54143694     0.36700
C2660       C  0.22486535  0.11233490  0.94324377     0.40000
N2661       N  0.16114933  0.01954672  0.94243388    -0.38100
N2662       N  0.17257441  0.07042033  0.94323422    -0.39700
N2663       N  0.22895082  0.00330107  0.54639611    -0.37400
N2664       N  0.24235296  0.05477493  0.54170228    -0.39800
N2665       N  0.22428409  0.06685459  0.91937111    -0.39600
N2666       N  0.22778736  0.11992204  0.92135363    -0.37200
N2667       N  0.20076150  0.12024159  0.56832484    -0.38300
N2668       N  0.18569758  0.06965246  0.55985014    -0.39900
C2669       C  0.30715620  0.16215670  0.64724395    -0.04900
C2670       C  0.29928753  0.14551990  0.64094301     0.09300
C2671       C  0.30525311  0.13029244  0.65644715    -0.02200
C2672       C  0.31991871  0.13142514  0.67597903    -0.00500
C2673       C  0.32763849  0.14807235  0.68252177    -0.04100
C2674       C  0.32081020  0.16350618  0.66879841     0.02900
C2675       C  0.28570943  0.14378131  0.61644545     0.09700
C2676       C  0.29618207  0.11346286  0.65248174     0.35600
C2677       C  0.32788601  0.18075877  0.67688143     0.39100
C2678       C  0.28988439  0.13403669  0.59054576    -0.04500
C2679       C  0.27736711  0.13242741  0.56735862     0.02700
C2680       C  0.26154185  0.14288827  0.56737789    -0.04100
C2681       C  0.25644385  0.15074681  0.59495072    -0.00300
C2682       C  0.26856108  0.15125675  0.61923481    -0.02900
C2683       C  0.30728598  0.12587947  0.58734478     0.36400
C2684       C  0.23826085  0.15630748  0.60003075     0.40000
C2685       C  0.28071073  0.11944025  0.54400322     0.39100
C2686       C  0.26328221  0.15914427  0.64740790     0.36100
C2687       C  0.30144484  0.17784532  0.63114564     0.36700
C2688       C  0.32705923  0.11545304  0.68955112     0.40000
N2689       N  0.28335272  0.10903428  0.52551204    -0.38100
N2690       N  0.32113619  0.11936008  0.58478141    -0.39700
N2691       N  0.22372465  0.16060204  0.60449812    -0.37400
N2692       N  0.25907765  0.16540764  0.66990665    -0.39800
N2693       N  0.28890708  0.10005228  0.64942676    -0.39600
N2694       N  0.33282273  0.10275476  0.70039624    -0.37200
N2695       N  0.33356536  0.19449468  0.68343594    -0.38300
N2696       N  0.29687607  0.19035878  0.61828794    -0.39900
C2697       C  0.28043910  0.13510838  0.91423731    -0.04900
C2698       C  0.28995580  0.15097015  0.90856693     0.09300
C2699       C  0.28729960  0.16561574  0.92790646    -0.02200
C2700       C  0.27508710  0.16451440  0.95187574    -0.00500
C2701       C  0.26533693  0.14872978  0.95710290    -0.04100
C2702       C  0.26939363  0.13364615  0.93963768     0.02900
C2703       C  0.30417951  0.15154250  0.88456091     0.09700
C2704       C  0.29789928  0.18153942  0.92428380     0.35600
C2705       C  0.26525990  0.11612039  0.95091609     0.39100
C2706       C  0.30296186  0.16350636  0.86031045    -0.04500
C2707       C  0.31672890  0.16445649  0.83880066     0.02700
C2708       C  0.33096706  0.15208953  0.83913309    -0.04100
C2709       C  0.33203294  0.13995847  0.86324031    -0.00300
C2710       C  0.31926718  0.14031431  0.88642202    -0.02900
C2711       C  0.28736324  0.17468141  0.85714191     0.36400
C2712       C  0.34617374  0.12686472  0.86418711     0.40000
C2713       C  0.31638180  0.17843744  0.81659870     0.39100
C2714       C  0.32184091  0.12922502  0.91253347     0.36100
C2715       C  0.28253891  0.11993374  0.89460414     0.36700
C2716       C  0.27454269  0.17869211  0.97377394     0.40000
N2717       N  0.31615481  0.18965801  0.79899350    -0.38100
N2718       N  0.27490341  0.18358178  0.85462266    -0.39700
N2719       N  0.35750558  0.11647809  0.86507061    -0.37400
N2720       N  0.32385966  0.12039967  0.93338531    -0.39800
N2721       N  0.30629881  0.19427831  0.92136024    -0.39600
N2722       N  0.27468938  0.18949920  0.99214871    -0.37200
N2723       N  0.26272069  0.10203022  0.96023148    -0.38300
N2724       N  0.28422401  0.10778534  0.87903393    -0.39900
C2725       C  0.59790201  0.14898446  0.91788404    -0.04900
C2726       C  0.59365238  0.15634040  0.88970587     0.09300
C2727       C  0.57615199  0.16257794  0.88470702    -0.02200
C2728       C  0.56324632  0.16183630  0.90771863    -0.00500
C2729       C  0.56736171  0.15397758  0.93560203    -0.04100
C2730       C  0.58472532  0.14725602  0.94026524     0.02900
C2731       C  0.60750541  0.15693208  0.86517183     0.09700
C2732       C  0.57134099  0.16952251  0.85563171     0.35600
C2733       C  0.58921799  0.13887303  0.96840615     0.39100
C2734       C  0.61322728  0.14104880  0.85127134    -0.04500
C2735       C  0.62701148  0.14130305  0.82978269     0.02700
C2736       C  0.63500865  0.15749603  0.82130985    -0.04100
C2737       C  0.62860174  0.17348549  0.83387260    -0.00300
C2738       C  0.61511482  0.17320814  0.85593001    -0.02900
C2739       C  0.60460814  0.12443239  0.85869885     0.36400
C2740       C  0.63581623  0.19026175  0.82373938     0.40000
C2741       C  0.63281999  0.12488642  0.81598977     0.39100
C2742       C  0.60906954  0.18971552  0.86909908     0.36100
C2743       C  0.61604419  0.14358642  0.92411577     0.36700
C2744       C  0.54553105  0.16876434  0.90234601     0.40000
N2745       N  0.63738401  0.11180352  0.80481765    -0.38100
N2746       N  0.59761822  0.11122565  0.86461575    -0.39700
N2747       N  0.64156556  0.20360162  0.81540391    -0.37400
N2748       N  0.60415751  0.20292840  0.87939036    -0.39800
N2749       N  0.56755022  0.17505373  0.83239315    -0.39600
N2750       N  0.53141262  0.17434958  0.89810532    -0.37200
N2751       N  0.59278865  0.13210356  0.99080096    -0.38300
N2752       N  0.63056007  0.13942192  0.92911136    -0.39900
C2753       C  0.62318048  0.14964988  0.62821673    -0.04900
C2754       C  0.61296169  0.16520178  0.62433358     0.09300
C2755       C  0.61688707  0.18049465  0.64130361    -0.02200
C2756       C  0.63099822  0.18026208  0.66204787    -0.00500
C2757       C  0.64101838  0.16462179  0.66630413    -0.04100
C2758       C  0.63711885  0.14933036  0.64929207     0.02900
C2759       C  0.59774163  0.16533451  0.60283363     0.09700
C2760       C  0.60598306  0.19625171  0.63806370     0.35600
C2761       C  0.64699531  0.13307394  0.65447820     0.39100
C2762       C  0.58050799  0.16089982  0.61264930    -0.04500
C2763       C  0.56624681  0.16047169  0.59218520     0.02700
C2764       C  0.56921285  0.16415157  0.56172707    -0.04100
C2765       C  0.58623830  0.16964098  0.55227257    -0.00300
C2766       C  0.60051248  0.17008657  0.57276882    -0.02900
C2767       C  0.57751684  0.15671985  0.64382456     0.36400
C2768       C  0.58907130  0.17487486  0.52153443     0.40000
C2769       C  0.54836902  0.15707855  0.60272302     0.39100
C2770       C  0.61812280  0.17527967  0.56301299     0.36100
C2771       C  0.61897914  0.13383502  0.61113474     0.36700
C2772       C  0.63493618  0.19592942  0.67967650     0.40000
N2773       N  0.53410737  0.15474625  0.61147923    -0.38100
N2774       N  0.57517883  0.15340327  0.66871398    -0.39700
N2775       N  0.58998243  0.17875109  0.99913988    -0.37400
N2776       N  0.63222004  0.17941038  0.55542975    -0.39800
N2777       N  0.59714643  0.20874275  0.63557722    -0.39600
N2778       N  0.63809687  0.20840634  0.69380302    -0.37200
N2779       N  0.65485151  0.12012177  0.65886502    -0.38300
N2780       N  0.61560038  0.12119760  0.59756291    -0.39900
C2781       C  0.85154643  0.05033611  0.98211580    -0.04900
C2782       C  0.84660236  0.05677769  0.51341408     0.09300
C2783       C  0.84876307  0.04602319  0.53882734    -0.02200
C2784       C  0.85313798  0.02781330  0.53583326    -0.00500
C2785       C  0.85608217  0.02013803  0.50706534    -0.04100
C2786       C  0.85688513  0.03247716  0.97785467     0.02900
C2787       C  0.84141064  0.07600792  0.51635855     0.09700
C2788       C  0.84632960  0.05375992  0.56822150     0.35600
C2789       C  0.86227655  0.02706922  0.94814519     0.39100
C2790       C  0.82298672  0.08023972  0.01776101    -0.04500
C2791       C  0.81747322  0.09814685  0.01698923     0.02700
C2792       C  0.83032193  0.11203821  0.51330998    -0.04100
C2793       C  0.84852219  0.10767809  0.51074271    -0.00300
C2794       C  0.85408763  0.08971634  0.51277603    -0.02900
C2795       C  0.80980191  0.06629045  0.02044567     0.36400
C2796       C  0.86134192  0.12151323  0.50436364     0.40000
C2797       C  0.79888562  0.10237066  0.02172969     0.39100
C2798       C  0.87276991  0.08523397  0.51031779     0.36100
C2799       C  0.85090613  0.06238663  0.95686967     0.36700
C2800       C  0.85436717  0.01721075  0.56277686     0.40000
N2801       N  0.78405764  0.10556690  0.02590143    -0.38100
N2802       N  0.79929669  0.05515909  0.02265252    -0.39700
N2803       N  0.87154295  0.13257416  0.49917147    -0.37400
N2804       N  0.88769188  0.08163310  0.50852970    -0.39800
N2805       N  0.84429573  0.05989646  0.59165586    -0.39600
N2806       N  0.85528889  0.00886607  0.58439546    -0.37200
N2807       N  0.86649806  0.02292246  0.92431174    -0.38300
N2808       N  0.85031316  0.07205751  0.93685420    -0.39900
C2809       C  0.75004319  0.17025959  0.85922892    -0.04900
C2810       C  0.75508899  0.15383797  0.87175420     0.09300
C2811       C  0.74718713  0.13797390  0.86134915    -0.02200
C2812       C  0.73381446  0.13859555  0.83936582    -0.00500
C2813       C  0.72846139  0.15505072  0.82741108    -0.04100
C2814       C  0.73680618  0.17084781  0.83695448     0.02900
C2815       C  0.76784790  0.15317984  0.89733442     0.09700
C2816       C  0.75287189  0.12101124  0.87333856     0.35600
C2817       C  0.73178997  0.18765524  0.82361192     0.39100
C2818       C  0.76138479  0.14956950  0.92605395    -0.04500
C2819       C  0.77326398  0.14686294  0.94989875     0.02700
C2820       C  0.79178569  0.15056670  0.94655236    -0.04100
C2821       C  0.79825722  0.15275987  0.91685842    -0.00300
C2822       C  0.78629720  0.15432485  0.89259144    -0.02900
C2823       C  0.74232397  0.14831281  0.93094468     0.36400
C2824       C  0.81712660  0.15185305  0.91041731     0.40000
C2825       C  0.76621814  0.13840829  0.97641551     0.39100
C2826       C  0.79294180  0.15672503  0.86248681     0.36100
C2827       C  0.75841783  0.18651564  0.86937423     0.36700
C2828       C  0.72576054  0.12231253  0.82857326     0.40000
N2829       N  0.76013893  0.13173265  0.99726860    -0.38100
N2830       N  0.72714044  0.14740049  0.93476099    -0.39700
N2831       N  0.83215213  0.15108501  0.90503037    -0.37400
N2832       N  0.79816842  0.15865698  0.83844304    -0.39800
N2833       N  0.75743715  0.10751413  0.88298817    -0.39600
N2834       N  0.71937931  0.10933530  0.81981722    -0.37200
N2835       N  0.72774945  0.20100099  0.81278444    -0.38300
N2836       N  0.76516846  0.19948397  0.87734882    -0.39900
C2837       C  0.79018494  0.14801827  0.60842613    -0.04900
C2838       C  0.77763340  0.16196451  0.60972829     0.09300
C2839       C  0.77825298  0.17547330  0.58795710    -0.02200
C2840       C  0.78999778  0.17402542  0.56357741    -0.00500
C2841       C  0.80038372  0.15850325  0.55962332    -0.04100
C2842       C  0.80146417  0.14619677  0.58337704     0.02900
C2843       C  0.76297738  0.16174122  0.63257675     0.09700
C2844       C  0.76618027  0.19045119  0.58976920     0.35600
C2845       C  0.81372325  0.13139320  0.58209840     0.39100
C2846       C  0.76244727  0.17440469  0.65582334    -0.04500
C2847       C  0.74784045  0.17494802  0.67564953     0.02700
C2848       C  0.73411184  0.16212704  0.67355089    -0.04100
C2849       C  0.73519548  0.14888116  0.65127223    -0.00300
C2850       C  0.74923158  0.14900100  0.63039075    -0.02900
C2851       C  0.77719505  0.18657425  0.65973652     0.36400
C2852       C  0.72216497  0.13471239  0.65052174     0.40000
C2853       C  0.74703549  0.18863073  0.69838969     0.39100
C2854       C  0.74951513  0.13597925  0.60651136     0.36100
C2855       C  0.79103907  0.13520049  0.63249680     0.36700
C2856       C  0.79131265  0.18850524  0.54236514     0.40000
N2857       N  0.74647944  0.19954555  0.71655909    -0.38100
N2858       N  0.78906896  0.19615550  0.66287204    -0.39700
N2859       N  0.71183371  0.12334184  0.65019199    -0.37400
N2860       N  0.74982418  0.12559773  0.58746241    -0.39800
N2861       N  0.75657950  0.20242765  0.59123863    -0.39600
N2862       N  0.79245290  0.20007491  0.52552489    -0.37200
N2863       N  0.82361666  0.11962423  0.58198829    -0.38300
N2864       N  0.79172734  0.12497385  0.65170514    -0.39900
C2865       C  0.48095816  0.78047083  0.88475616    -0.04900
C2866       C  0.46362281  0.77532644  0.89313128     0.09300
C2867       C  0.46048149  0.76972758  0.92272027    -0.02200
C2868       C  0.47459289  0.76905858  0.94363146    -0.00500
C2869       C  0.49179427  0.77483283  0.93554812    -0.04100
C2870       C  0.49498373  0.78014827  0.90580969     0.02900
C2871       C  0.44871061  0.77596147  0.87068969     0.09700
C2872       C  0.44254150  0.76547147  0.93198915     0.35600
C2873       C  0.51286582  0.78452054  0.89641808     0.39100
C2874       C  0.44355206  0.76048656  0.85505793    -0.04500
C2875       C  0.43030043  0.76135935  0.83264606     0.02700
C2876       C  0.42205150  0.77769531  0.82574363    -0.04100
C2877       C  0.42680288  0.79304785  0.84206354    -0.00300
C2878       C  0.44008339  0.79218638  0.86439339    -0.02900
C2879       C  0.45195168  0.74367184  0.86202158     0.36400
C2880       C  0.41803863  0.80977275  0.83573645     0.40000
C2881       C  0.42501889  0.74544663  0.81673956     0.39100
C2882       C  0.44492074  0.80799146  0.88101797     0.36100
C2883       C  0.48424738  0.78650081  0.85454208     0.36700
C2884       C  0.47136789  0.76258767  0.97359482     0.40000
N2885       N  0.42069937  0.73277087  0.80405323    -0.38100
N2886       N  0.45860967  0.73024096  0.86770654    -0.39700
N2887       N  0.41099723  0.82310311  0.83071964    -0.37400
N2888       N  0.44883570  0.82054426  0.89440476    -0.39800
N2889       N  0.42817738  0.76232136  0.93949156    -0.39600
N2890       N  0.46888098  0.75724480  0.99742056    -0.37200
N2891       N  0.52710218  0.78774332  0.88838654    -0.38300
N2892       N  0.48678893  0.79145778  0.83049809    -0.39900
C2893       C  0.46228216  0.78838280  0.57599370    -0.04900
C2894       C  0.46516849  0.78062479  0.60427819     0.09300
C2895       C  0.48174041  0.77264389  0.61072845    -0.02200
C2896       C  0.49517836  0.77208956  0.58883853    -0.00500
C2897       C  0.49242657  0.78023192  0.56082019    -0.04100
C2898       C  0.47596183  0.78847980  0.55453982     0.02900
C2899       C  0.45065495  0.78080727  0.62714652     0.09700
C2900       C  0.48501122  0.76513139  0.64001655     0.35600
C2901       C  0.47281068  0.79649135  0.52556734     0.39100
C2902       C  0.44158615  0.76498115  0.63447848    -0.04500
C2903       C  0.42781220  0.76523283  0.65580750     0.02700
C2904       C  0.42268776  0.78139191  0.66929119    -0.04100
C2905       C  0.43147127  0.79725704  0.66143368    -0.00300
C2906       C  0.44567284  0.79690848  0.64099608    -0.02900
C2907       C  0.44644675  0.74844490  0.62000977     0.36400
C2908       C  0.42587361  0.81394822  0.67458435     0.40000
C2909       C  0.41882331  0.74889997  0.66376647     0.39100
C2910       C  0.45538001  0.81308183  0.63457910     0.36100
C2911       C  0.44508241  0.79601612  0.56880689     0.36700
C2912       C  0.51194005  0.76333508  0.59532215     0.40000
N2913       N  0.41159902  0.73586585  0.66996548    -0.38100
N2914       N  0.45044927  0.73527542  0.60851608    -0.39700
N2915       N  0.42130425  0.82722030  0.68509780    -0.37400
N2916       N  0.46314624  0.82597666  0.62949701    -0.39800
N2917       N  0.48761546  0.75911319  0.66336586    -0.39600
N2918       N  0.52528215  0.75627388  0.60035905    -0.37200
N2919       N  0.47025259  0.80285877  0.50246338    -0.38300
N2920       N  0.43135756  0.80211017  0.56315085    -0.39900
C2921       C  0.23760906  0.87031995  0.51430576    -0.04900
C2922       C  0.22013306  0.87572686  0.50735347     0.09300
C2923       C  0.20694729  0.86250698  0.00027611    -0.02200
C2924       C  0.21198115  0.84440906  0.99922492    -0.00500
C2925       C  0.22958247  0.83924345  0.50464508    -0.04100
C2926       C  0.24240518  0.85222680  0.51241619     0.02900
C2927       C  0.21509477  0.89504778  0.50855063     0.09700
C2928       C  0.18906700  0.86767136  0.99180784     0.35600
C2929       C  0.26070193  0.84700097  0.51788055     0.39100
C2930       C  0.21908166  0.90659218  0.98627668    -0.04500
C2931       C  0.21317685  0.92445686  0.98627972     0.02700
C2932       C  0.20243224  0.93075129  0.50921456    -0.04100
C2933       C  0.20034760  0.91953762  0.53456335    -0.00300
C2934       C  0.20681072  0.90192683  0.53419422    -0.02900
C2935       C  0.23009756  0.90009024  0.96211465     0.36400
C2936       C  0.19067891  0.92551430  0.56070924     0.40000
C2937       C  0.21879125  0.93632534  0.96268173     0.42700
C2938       C  0.20476251  0.89065884  0.56021124     0.36100
C2939       C  0.25066910  0.88343189  0.52332180     0.36700
C2940       C  0.19931651  0.83100996  0.98982315     0.40000
N2941       N  0.22329761  0.94583574  0.94391111    -0.38100
N2942       N  0.23893336  0.89490746  0.94287271    -0.39700
N2943       N  0.18298746  0.93015032  0.58166280    -0.37400
N2944       N  0.20325685  0.88163431  0.58092343    -0.39800
N2945       N  0.17479609  0.87178153  0.98501460    -0.39600
N2946       N  0.18926646  0.82026289  0.98231570    -0.37200
N2947       N  0.27528099  0.84282516  0.52231837    -0.38300
N2948       N  0.26106339  0.89389050  0.53065365    -0.39900
C2949       C  0.28625450  0.77781942  0.91290789    -0.04900
C2950       C  0.29170872  0.79234244  0.89539379     0.09300
C2951       C  0.28549819  0.80941079  0.90275751    -0.02200
C2952       C  0.27561113  0.81212940  0.92899348    -0.00500
C2953       C  0.26748680  0.79751860  0.94402599    -0.04100
C2954       C  0.27364053  0.78018404  0.93603105     0.02900
C2955       C  0.30537737  0.79016348  0.87117081     0.09700
C2956       C  0.28999156  0.82445783  0.88398160     0.35600
C2957       C  0.26782080  0.76453902  0.95200044     0.39100
C2958       C  0.30162721  0.78018230  0.84516595    -0.04500
C2959       C  0.31452898  0.77855056  0.82245572     0.02700
C2960       C  0.33065090  0.78819777  0.82428013    -0.04100
C2961       C  0.33402044  0.79876535  0.84976194    -0.00300
C2962       C  0.32203113  0.79875535  0.87382721    -0.02900
C2963       C  0.28444517  0.77170012  0.84161526     0.36400
C2964       C  0.34967324  0.81001416  0.85097397     0.40000
C2965       C  0.31118540  0.76690795  0.79725898     0.39100
C2966       C  0.32699609  0.80739443  0.90158864     0.36100
C2967       C  0.29411630  0.76047275  0.90777635     0.36700
C2968       C  0.27709603  0.82952706  0.94265151     0.40000
N2969       N  0.30846869  0.75766889  0.77711314    -0.38100
N2970       N  0.27076319  0.76487327  0.83881307    -0.39700
N2971       N  0.36211253  0.81903567  0.85176674    -0.37400
N2972       N  0.33099312  0.81420106  0.92377242    -0.39800
N2973       N  0.29355373  0.83640370  0.86893788    -0.39600
N2974       N  0.27868943  0.84344546  0.95329643    -0.37200
N2975       N  0.26314646  0.75169556  0.96371344    -0.38300
N2976       N  0.30044842  0.74667641  0.90372672    -0.39900
C2977       C  0.27496506  0.80868632  0.60053097    -0.04900
C2978       C  0.28810730  0.79528755  0.60189338     0.09300
C2979       C  0.28802499  0.78177584  0.58008575    -0.02200
C2980       C  0.27554263  0.78211156  0.55654366    -0.00500
C2981       C  0.26389635  0.79676306  0.55278199    -0.04100
C2982       C  0.26290013  0.80945999  0.57613971     0.02900
C2983       C  0.30198156  0.79511733  0.62630108     0.09700
C2984       C  0.30118288  0.76769338  0.58137337     0.35600
C2985       C  0.24949342  0.82324618  0.57572396     0.39100
C2986       C  0.30164282  0.78185328  0.64856607    -0.04500
C2987       C  0.31576123  0.78032542  0.66926550     0.02700
C2988       C  0.32983522  0.79278015  0.66932731    -0.04100
C2989       C  0.32978181  0.80653622  0.64789598    -0.00300
C2990       C  0.31618067  0.80742727  0.62604267    -0.02900
C2991       C  0.28672366  0.76970566  0.65008796     0.36400
C2992       C  0.34371714  0.81981622  0.64843259     0.40000
C2993       C  0.31608998  0.76556361  0.68999287     0.39100
C2994       C  0.31701130  0.82077101  0.60281052     0.36100
C2995       C  0.27398338  0.82177763  0.62422206     0.36700
C2996       C  0.27420436  0.76683745  0.53697389     0.40000
N2997       N  0.31646044  0.75371630  0.70638366    -0.38100
N2998       N  0.27479079  0.76005049  0.65128249    -0.39700
N2999       N  0.35484538  0.83041076  0.64896803    -0.37400
N3000       N  0.31766900  0.83137683  0.58419298    -0.39800
N3001       N  0.31170329  0.75649634  0.58245550    -0.39600
N3002       N  0.26952074  0.75302111  0.02665666    -0.37200
N3003       N  0.23871050  0.83420625  0.57637099    -0.38300
N3004       N  0.27321761  0.83221762  0.64314151    -0.39900
C3005       C  0.62003188  0.79811103  0.63410603    -0.04900
C3006       C  0.60979905  0.78253899  0.63038576     0.09300
C3007       C  0.61273886  0.76806013  0.64977812    -0.02200
C3008       C  0.62596778  0.76902592  0.67230669    -0.00500
C3009       C  0.63632336  0.78458012  0.67593134    -0.04100
C3010       C  0.63298228  0.79923697  0.65703642     0.02900
C3011       C  0.59555634  0.78164209  0.60659431     0.09700
C3012       C  0.60198134  0.75220635  0.64662521     0.35600
C3013       C  0.64245054  0.81573169  0.66193081     0.39100
C3014       C  0.59904359  0.77361733  0.57869757    -0.04500
C3015       C  0.58578781  0.77321085  0.55619142     0.02700
C3016       C  0.56884710  0.78078276  0.56132087    -0.04100
C3017       C  0.56538356  0.78883946  0.58923973    -0.00300
C3018       C  0.57859537  0.78909164  0.61181333    -0.02900
C3019       C  0.61633222  0.76577353  0.57314871     0.36400
C3020       C  0.54806823  0.79658565  0.59499791     0.40000
C3021       C  0.58989364  0.76563538  0.52728409     0.39100
C3022       C  0.57466647  0.79673036  0.64075792     0.36100
C3023       C  0.61722091  0.81298439  0.61415449     0.36700
C3024       C  0.62885045  0.75401456  0.69192281     0.40000
N3025       N  0.59339343  0.75969031  0.50422599    -0.38100
N3026       N  0.63009578  0.75943782  0.56870372    -0.39700
N3027       N  0.53425646  0.80278936  0.59955513    -0.37400
N3028       N  0.57157640  0.80271432  0.66396830    -0.39800
N3029       N  0.59332528  0.73960465  0.64402333    -0.39600
N3030       N  0.63106279  0.74206268  0.70769267    -0.37200
N3031       N  0.64986778  0.82895915  0.66608198    -0.38300
N3032       N  0.61495380  0.82478401  0.59808448    -0.39900
C3033       C  0.61243005  0.76372774  0.84882248    -0.04900
C3034       C  0.61210696  0.77560835  0.87320454     0.09300
C3035       C  0.62614510  0.78779048  0.87729632    -0.02200
C3036       C  0.63958926  0.78921548  0.85568953    -0.00500
C3037       C  0.63974819  0.77756612  0.83093413    -0.04100
C3038       C  0.62662470  0.76422867  0.82844427     0.02900
C3039       C  0.59677614  0.77570019  0.89429067     0.09700
C3040       C  0.62662497  0.79894836  0.90371321     0.35600
C3041       C  0.62775267  0.75106755  0.80484579     0.39100
C3042       C  0.59439277  0.76161490  0.91444921    -0.04500
C3043       C  0.57996519  0.76175119  0.93445167     0.02700
C3044       C  0.56846392  0.77676021  0.93607041    -0.04100
C3045       C  0.57119693  0.79103698  0.91582041    -0.00300
C3046       C  0.58496965  0.79021998  0.89461928    -0.02900
C3047       C  0.60726790  0.74724624  0.91531742     0.36400
C3048       C  0.55993424  0.80669485  0.91623167     0.40000
C3049       C  0.57757484  0.74649432  0.95378236     0.39100
C3050       C  0.58721685  0.80453326  0.87325570     0.36100
C3051       C  0.59794028  0.75131384  0.84426609     0.36700
C3052       C  0.65303715  0.80290659  0.85868711     0.40000
N3053       N  0.57579873  0.73426227  0.96908430    -0.38100
N3054       N  0.61761772  0.73588201  0.91605662    -0.39700
N3055       N  0.55109199  0.81927617  0.91643380    -0.37400
N3056       N  0.58911500  0.81596184  0.85633513    -0.39800
N3057       N  0.62694651  0.80777393  0.92486120    -0.39600
N3058       N  0.66380813  0.81377208  0.86116860    -0.37200
N3059       N  0.62876384  0.74056112  0.78606335    -0.38300
N3060       N  0.58637226  0.74142594  0.84058757    -0.39900
C3061       C  0.82489748  0.87099676  0.97324114    -0.04900
C3062       C  0.84119371  0.87704318  0.49402747     0.09300
C3063       C  0.85092802  0.86449798  0.51079059    -0.02200
C3064       C  0.84523680  0.84664006  0.51211635    -0.00500
C3065       C  0.82996141  0.84110005  0.49613539    -0.04100
C3066       C  0.81986887  0.85296161  0.97543797     0.02900
C3067       C  0.84650926  0.89626323  0.49427163     0.09700
C3068       C  0.86658649  0.87013256  0.52720821     0.35600
C3069       C  0.80272534  0.84737560  0.96393296     0.39100
C3070       C  0.83948636  0.90803260  0.51580284    -0.04500
C3071       C  0.84486125  0.92605401  0.51647896     0.02700
C3072       C  0.85700968  0.93261000  0.49506509    -0.04100
C3073       C  0.86141725  0.92142100  0.96563063    -0.00300
C3074       C  0.85624499  0.90339593  0.96526815    -0.02900
C3075       C  0.82705070  0.90137936  0.53777820     0.36400
C3076       C  0.87358864  0.92753803  0.94275941     0.40000
C3077       C  0.83788449  0.93776695  0.53931203     0.39100
C3078       C  0.86298917  0.89153024  0.94238940     0.36100
C3079       C  0.81403584  0.88330557  0.95631926     0.36700
C3080       C  0.85426873  0.83431351  0.53185177     0.40000
N3081       N  0.83233737  0.94703659  0.55768491    -0.38100
N3082       N  0.81717016  0.89594316  0.55527805    -0.39700
N3083       N  0.88322574  0.93229071  0.92433129    -0.37400
N3084       N  0.86840304  0.88203248  0.92423852    -0.39800
N3085       N  0.87909077  0.87470950  0.54019227    -0.39600
N3086       N  0.86138314  0.82454841  0.54783383    -0.37200
N3087       N  0.78896038  0.84300357  0.95498860    -0.38300
N3088       N  0.80546625  0.89313389  0.94263045    -0.39900
C3089       C  0.76251515  0.80264144  0.57962637    -0.04900
C3090       C  0.76905296  0.79738864  0.60765060     0.09300
C3091       C  0.78751286  0.79560578  0.61199371    -0.02200
C3092       C  0.79931929  0.79762304  0.58768829    -0.00500
C3093       C  0.79263478  0.80118080  0.55848900    -0.04100
C3094       C  0.77432786  0.80597571  0.55604320     0.02900
C3095       C  0.75639824  0.79559373  0.63311628     0.09700
C3096       C  0.79434884  0.79241843  0.64181598     0.35600
C3097       C  0.76769960  0.81608574  0.53078330     0.39100
C3098       C  0.75087278  0.77865787  0.64276319    -0.04500
C3099       C  0.73770910  0.77713042  0.66493790     0.02700
C3100       C  0.72943302  0.79250101  0.67642710    -0.04100
C3101       C  0.73496712  0.80942605  0.66679515    -0.00300
C3102       C  0.74880547  0.81097059  0.64589465    -0.02900
C3103       C  0.75846032  0.76284629  0.62941116     0.36400
C3104       C  0.72636719  0.82522263  0.67841317     0.40000
C3105       C  0.73256002  0.75978477  0.67592705     0.39100
C3106       C  0.75528464  0.82837803  0.63744380     0.36100
C3107       C  0.74350856  0.80497843  0.57524397     0.36700
C3108       C  0.81825198  0.79792310  0.59382638     0.40000
N3109       N  0.72839561  0.74600565  0.68488028    -0.38100
N3110       N  0.76446460  0.75021613  0.61869763    -0.39700
N3111       N  0.71944903  0.83780235  0.68763801    -0.37400
N3112       N  0.76056698  0.84223361  0.63077549    -0.39800
N3113       N  0.79977537  0.79001867  0.66565698    -0.39600
N3114       N  0.83333881  0.79826115  0.59895793    -0.37200
N3115       N  0.76464955  0.82379339  0.00894305    -0.38300
N3116       N  0.72835173  0.80675260  0.57188486    -0.39900
C3117       C  0.77516765  0.77524343  0.92103384    -0.04900
C3118       C  0.77466584  0.78741696  0.89718345     0.09300
C3119       C  0.78795368  0.80066019  0.89566185    -0.02200
C3120       C  0.80013557  0.80311691  0.91957023    -0.00500
C3121       C  0.79904724  0.79235025  0.94541584    -0.04100
C3122       C  0.78786274  0.77717841  0.94408619     0.02900
C3123       C  0.75990999  0.78663091  0.87422812     0.09700
C3124       C  0.78880638  0.81201117  0.86961148     0.35600
C3125       C  0.78991545  0.76301375  0.96566881     0.39100
C3126       C  0.74642475  0.79973689  0.87414900    -0.04500
C3127       C  0.73267829  0.79931430  0.85253183     0.02700
C3128       C  0.73195026  0.78553514  0.83113023    -0.04100
C3129       C  0.74516806  0.77217259  0.83164770    -0.00300
C3130       C  0.75915065  0.77279899  0.85286828    -0.02900
C3131       C  0.74662657  0.81361016  0.89662421     0.36400
C3132       C  0.74432665  0.75773631  0.81027719     0.40000
C3133       C  0.71945310  0.81331715  0.85187525     0.39100
C3134       C  0.77281527  0.75921892  0.85266863     0.36100
C3135       C  0.76213746  0.76109028  0.92259023     0.36700
C3136       C  0.81378515  0.81653715  0.91691754     0.40000
N3137       N  0.70893985  0.82453243  0.85125465    -0.38100
N3138       N  0.74686832  0.82463074  0.91463468    -0.39700
N3139       N  0.74360839  0.74622954  0.79318817    -0.37400
N3140       N  0.78365354  0.74831037  0.85268669    -0.39800
N3141       N  0.78943729  0.82104028  0.84877622    -0.39600
N3142       N  0.82479318  0.82711569  0.91398057    -0.37200
N3143       N  0.79023802  0.75289635  0.48040767    -0.38300
N3144       N  0.75173405  0.74981164  0.92390471    -0.39900
C3145       C  0.82933066  0.41050413  0.58241577    -0.04900
C3146       C  0.84005110  0.41205965  0.60818382     0.09300
C3147       C  0.85121212  0.42699678  0.61156685    -0.02200
C3148       C  0.85199906  0.44006590  0.58902705    -0.00500
C3149       C  0.84129995  0.43851618  0.56316542    -0.04100
C3150       C  0.82982467  0.42372399  0.56012249     0.02900
C3151       C  0.83965268  0.39789017  0.63172694     0.09700
C3152       C  0.86159300  0.42907935  0.63865270     0.35600
C3153       C  0.81887023  0.42176614  0.53361599     0.39100
C3154       C  0.85382008  0.38566864  0.63420378    -0.04500
C3155       C  0.85363162  0.37254283  0.65664121     0.02700
C3156       C  0.83894952  0.37106589  0.67614444    -0.04100
C3157       C  0.82457684  0.38306694  0.67320231    -0.00300
C3158       C  0.82513074  0.39666420  0.65154112    -0.02900
C3159       C  0.86862621  0.38662408  0.61359631     0.36400
C3160       C  0.80917165  0.38137414  0.69237789     0.40000
C3161       C  0.86874440  0.36073790  0.66007753     0.39100
C3162       C  0.81092658  0.40965792  0.64994022     0.36100
C3163       C  0.81780069  0.39521601  0.57884657     0.36700
C3164       C  0.86335955  0.45544347  0.59300593     0.40000
N3165       N  0.88076181  0.35128931  0.66295509    -0.38100
N3166       N  0.88043771  0.38739562  0.59714976    -0.39700
N3167       N  0.79686989  0.38004167  0.70767162    -0.37400
N3168       N  0.79968415  0.42012445  0.64864372    -0.39800
N3169       N  0.86980066  0.43071920  0.66035190    -0.39600
N3170       N  0.87239490  0.46773400  0.59615246    -0.37200
N3171       N  0.81016786  0.42016112  0.51245094    -0.38300
N3172       N  0.80855200  0.38305048  0.57612426    -0.39900
C3173       C  0.81942663  0.38985403  0.86481308    -0.04900
C3174       C  0.83550869  0.39629708  0.87713548     0.09300
C3175       C  0.85184750  0.38915353  0.86723250    -0.02200
C3176       C  0.85210287  0.37563603  0.84543634    -0.00500
C3177       C  0.83606689  0.36943886  0.83274403    -0.04100
C3178       C  0.81972683  0.37661928  0.84243420     0.02900
C3179       C  0.83539164  0.41086023  0.90009788     0.09700
C3180       C  0.86845162  0.39603150  0.87902365     0.35600
C3181       C  0.80326007  0.37046935  0.82911827     0.39100
C3182       C  0.84041230  0.40726100  0.92989465    -0.04500
C3183       C  0.84206854  0.42123980  0.95070556     0.02700
C3184       C  0.83747880  0.43874848  0.94251244    -0.04100
C3185       C  0.83147689  0.44221810  0.91322877    -0.00300
C3186       C  0.83112354  0.42845617  0.89178939    -0.02900
C3187       C  0.84406522  0.38916430  0.93906503     0.36400
C3188       C  0.82605780  0.46001965  0.90494335     0.40000
C3189       C  0.84867325  0.41760508  0.98052371     0.39100
C3190       C  0.82715551  0.43251527  0.86085847     0.36100
C3191       C  0.80257943  0.39691935  0.87509082     0.36700
C3192       C  0.86892485  0.36827293  0.83559294     0.40000
N3193       N  0.85414534  0.41467924  0.00416638    -0.38100
N3194       N  0.84697979  0.37473662  0.94643535    -0.39700
N3195       N  0.82153719  0.47416407  0.89832190    -0.37400
N3196       N  0.82416598  0.43570383  0.83609718    -0.39800
N3197       N  0.88165726  0.40155033  0.88852950    -0.39600
N3198       N  0.88232658  0.36238735  0.82768039    -0.37200
N3199       N  0.79014086  0.36553099  0.81843838    -0.38300
N3200       N  0.78914749  0.40262665  0.88322980    -0.39900
C3201       C  0.92093381  0.16867115  0.97397375    -0.04900
C3202       C  0.93094380  0.16372311  0.50317485     0.09300
C3203       C  0.92237046  0.16643507  0.53065833    -0.02200
C3204       C  0.90405894  0.17024385  0.53165686    -0.00500
C3205       C  0.89429894  0.17413363  0.50515244    -0.04100
C3206       C  0.90262999  0.17328240  0.97510708     0.02900
C3207       C  0.94985176  0.15718494  0.50305020     0.09700
C3208       C  0.93245059  0.16501133  0.55830290     0.35600
C3209       C  0.89310526  0.17464468  0.94711309     0.39100
C3210       C  0.96405299  0.16813483  0.49364111    -0.04500
C3211       C  0.98187692  0.16220087  0.49643821     0.02700
C3212       C  0.98560074  0.14577430  0.51025352    -0.04100
C3213       C  0.97132993  0.13525004  0.52074928    -0.00300
C3214       C  0.95364759  0.14038640  0.51537332    -0.02900
C3215       C  0.96110753  0.18769028  0.98172886     0.36400
C3216       C  0.97456135  0.11919863  0.53778018     0.40000
C3217       C  0.99656817  0.17345186  0.98306055     0.39100
C3218       C  0.93924089  0.12831331  0.52267879     0.36100
C3219       C  0.92972005  0.16651893  0.94540448     0.36700
C3220       C  0.89531435  0.16829775  0.56020906     0.40000
N3221       N  0.00850588  0.18201242  0.97551770    -0.38100
N3222       N  0.95873027  0.20217463  0.97413250    -0.39700
N3223       N  0.97657756  0.10658482  0.55209626    -0.37400
N3224       N  0.92780245  0.11864653  0.52841877    -0.39800
N3225       N  0.94048644  0.16381326  0.58026328    -0.39600
N3226       N  0.88927767  0.16623858  0.58363981    -0.37200
N3227       N  0.88598154  0.17536442  0.92421334    -0.38300
N3228       N  0.93677319  0.16493855  0.92263327    -0.39900
C3229       C  0.84223598  0.24452151  0.57861796    -0.04900
C3230       C  0.85001742  0.23968964  0.60604276     0.09300
C3231       C  0.85509609  0.22189072  0.61061733    -0.02200
C3232       C  0.85419656  0.20960008  0.58683682    -0.00500
C3233       C  0.84984355  0.21535781  0.55760330    -0.04100
C3234       C  0.84124221  0.23212180  0.55504900     0.02900
C3235       C  0.85038272  0.25276479  0.63124684     0.09700
C3236       C  0.86071037  0.21612903  0.64002244     0.35600
C3237       C  0.82875125  0.23555412  0.53103865     0.39100
C3238       C  0.83618851  0.25326326  0.65174775    -0.04500
C3239       C  0.83578978  0.26625697  0.67438500     0.02700
C3240       C  0.84943076  0.27908129  0.67636642    -0.04100
C3241       C  0.86369738  0.27854764  0.65593723    -0.00300
C3242       C  0.86426659  0.26529420  0.63362028    -0.02900
C3243       C  0.82177470  0.24059452  0.64900268     0.36400
C3244       C  0.87767675  0.29174478  0.65780412     0.40000
C3245       C  0.82110784  0.26668834  0.69527998     0.39100
C3246       C  0.87909096  0.26452670  0.61303882     0.36100
C3247       C  0.83451946  0.26206302  0.57516004     0.36700
C3248       C  0.85500289  0.19081135  0.59337962     0.40000
N3249       N  0.80939491  0.26700789  0.71196272    -0.38100
N3250       N  0.81031642  0.23046000  0.64656023    -0.39700
N3251       N  0.88875481  0.30236241  0.65928498    -0.37400
N3252       N  0.89096371  0.26385854  0.59669469    -0.39800
N3253       N  0.86510196  0.21154841  0.66354833    -0.39600
N3254       N  0.85453485  0.17584978  0.59909245    -0.37200
N3255       N  0.81859687  0.23831484  0.51215775    -0.38300
N3256       N  0.82833393  0.27604229  0.57252948    -0.39900
C3257       C  0.83657186  0.22899109  0.91101159    -0.04900
C3258       C  0.85207024  0.23510420  0.89643069     0.09300
C3259       C  0.86875826  0.22832741  0.90560111    -0.02200
C3260       C  0.87006528  0.21742370  0.93119429    -0.00500
C3261       C  0.85455974  0.21063399  0.94490340    -0.04100
C3262       C  0.83777533  0.21624109  0.93405127     0.02900
C3263       C  0.85088829  0.24970247  0.87332180     0.09700
C3264       C  0.88471922  0.23319507  0.88945165     0.35600
C3265       C  0.82165249  0.21023590  0.94860465     0.39100
C3266       C  0.85870413  0.26651687  0.87880360    -0.04500
C3267       C  0.85762026  0.28017978  0.85723172     0.02700
C3268       C  0.84751271  0.27774788  0.83081223    -0.04100
C3269       C  0.83870040  0.26132959  0.82638824    -0.00300
C3270       C  0.84122039  0.24713927  0.84655797    -0.02900
C3271       C  0.86767194  0.26992836  0.90694138     0.36400
C3272       C  0.82653757  0.25916156  0.80148103     0.40000
C3273       C  0.86683246  0.29681623  0.86251113     0.39100
C3274       C  0.83394467  0.22979746  0.83955783     0.36100
C3275       C  0.81941124  0.23670989  0.90379377     0.36700
C3276       C  0.88721361  0.21549723  0.94563519     0.40000
N3277       N  0.87398473  0.31016292  0.86694013    -0.38100
N3278       N  0.87488748  0.27263491  0.92932546    -0.39700
N3279       N  0.81676564  0.25748419  0.78170052    -0.37400
N3280       N  0.82812380  0.21596934  0.83397743    -0.39800
N3281       N  0.89744123  0.23705072  0.87651928    -0.39600
N3282       N  0.90096801  0.21456299  0.95716344    -0.37200
N3283       N  0.80870044  0.20566311  0.96015403    -0.38300
N3284       N  0.80573207  0.24289516  0.89810057    -0.39900
C3285       C  0.85703678  0.56227827  0.85631372    -0.04900
C3286       C  0.84124854  0.55569748  0.86936932     0.09300
C3287       C  0.82465216  0.56245056  0.85961306    -0.02200
C3288       C  0.82394345  0.57609728  0.83802118    -0.00500
C3289       C  0.83969922  0.58223956  0.82447804    -0.04100
C3290       C  0.85619958  0.57498171  0.83323251     0.02900
C3291       C  0.84218005  0.54166966  0.89329234     0.09700
C3292       C  0.80827875  0.55507403  0.87126928     0.35600
C3293       C  0.87231448  0.58045916  0.81814196     0.39100
C3294       C  0.83704620  0.54564765  0.92290534    -0.04500
C3295       C  0.83767957  0.53240765  0.94517874     0.02700
C3296       C  0.84453205  0.51537387  0.93858518    -0.04100
C3297       C  0.85074079  0.51173376  0.90948283    -0.00300
C3298       C  0.84876805  0.52451246  0.88664560    -0.02900
C3299       C  0.83145897  0.56349585  0.93065168     0.36400
C3300       C  0.85919269  0.49487037  0.90294207     0.40000
C3301       C  0.83186681  0.53652093  0.97527245     0.39100
C3302       C  0.85326362  0.51991891  0.85612987     0.36100
C3303       C  0.87420129  0.55606289  0.86679933     0.36700
C3304       C  0.80700045  0.58381551  0.82958006     0.40000
N3305       N  0.82723858  0.53973013  0.99929537    -0.38100
N3306       N  0.82703670  0.57773980  0.93687423    -0.39700
N3307       N  0.86618480  0.48153936  0.89771103    -0.37400
N3308       N  0.85681865  0.51634155  0.83173956    -0.39800
N3309       N  0.79520582  0.54914367  0.88046495    -0.39600
N3310       N  0.79351547  0.59009367  0.82294364    -0.37200
N3311       N  0.88512652  0.58468156  0.80580553    -0.38300
N3312       N  0.88786212  0.55101643  0.87517036    -0.39900
C3313       C  0.84132509  0.52518984  0.61144339    -0.04900
C3314       C  0.84982909  0.54135458  0.60458128     0.09300
C3315       C  0.85803778  0.54356679  0.57658771    -0.02200
C3316       C  0.85722016  0.52989221  0.55509067    -0.00500
C3317       C  0.84774545  0.51411390  0.56126936    -0.04100
C3318       C  0.84013839  0.51165647  0.58976044     0.02900
C3319       C  0.84961415  0.55628845  0.62655902     0.09700
C3320       C  0.86720229  0.56002017  0.56995700     0.35600
C3321       C  0.83159937  0.49495983  0.59708515     0.39100
C3322       C  0.86304883  0.55771900  0.64844663    -0.04500
C3323       C  0.86247621  0.57157621  0.66961329     0.02700
C3324       C  0.84812800  0.58368275  0.66958294    -0.04100
C3325       C  0.83485457  0.58240566  0.64735006    -0.00300
C3326       C  0.83576909  0.56892438  0.62559784    -0.02900
C3327       C  0.87733833  0.54481031  0.64928304     0.36400
C3328       C  0.81999756  0.59470064  0.64738077     0.40000
C3329       C  0.87659035  0.57341132  0.69149485     0.39100
C3330       C  0.82245243  0.56800532  0.60218878     0.36100
C3331       C  0.83393495  0.52247791  0.64094861     0.36700
C3332       C  0.86579953  0.53227205  0.52641820     0.40000
N3333       N  0.88783955  0.57496232  0.70896184    -0.38100
N3334       N  0.88869974  0.53445418  0.64996454    -0.39700
N3335       N  0.80815280  0.60451103  0.64755132    -0.37400
N3336       N  0.81191603  0.56735515  0.58336300    -0.39800
N3337       N  0.87449154  0.57318571  0.56484453    -0.39600
N3338       N  0.87270267  0.53420623  0.50360007    -0.37200
N3339       N  0.82487339  0.48159757  0.60289691    -0.38300
N3340       N  0.82818451  0.52028570  0.66458587    -0.39900
C3341       C  0.96002494  0.78491879  0.97369751    -0.04900
C3342       C  0.94868817  0.78598673  0.50062206     0.09300
C3343       C  0.95701343  0.78924099  0.52826104    -0.02200
C3344       C  0.97500727  0.79475455  0.52953602    -0.00500
C3345       C  0.98498213  0.79739582  0.50282742    -0.04100
C3346       C  0.97789772  0.79076396  0.97445711     0.02900
C3347       C  0.92942613  0.78049728  0.49937740     0.09700
C3348       C  0.94686566  0.78710434  0.55553192     0.35600
C3349       C  0.98800937  0.79049452  0.94693613     0.39100
C3350       C  0.92492400  0.76234765  0.49852921    -0.04500
C3351       C  0.90691896  0.75702787  0.49736713     0.02700
C3352       C  0.89307583  0.76985418  0.49692163    -0.04100
C3353       C  0.89898250  0.78660270  0.99387704    -0.00300
C3354       C  0.91699760  0.79185617  0.99602539    -0.02900
C3355       C  0.93894854  0.74911532  0.49847376     0.36400
C3356       C  0.88551503  0.79958731  0.98627350     0.40000
C3357       C  0.90276902  0.73823734  0.49690399     0.39100
C3358       C  0.92164423  0.81051295  0.99475078     0.36100
C3359       C  0.95190819  0.77976281  0.94559247     0.36700
C3360       C  0.98292742  0.79767812  0.55867649     0.40000
N3361       N  0.89971255  0.72319492  0.49653527    -0.38100
N3362       N  0.95018862  0.73862084  0.49823210    -0.39700
N3363       N  0.87484270  0.80980066  0.97912385    -0.37400
N3364       N  0.92536272  0.82540357  0.99384125    -0.39800
N3365       N  0.93874784  0.78539314  0.57724238    -0.39600
N3366       N  0.98914862  0.79985945  0.58204390    -0.37200
N3367       N  0.99597242  0.79029579  0.92486971    -0.38300
N3368       N  0.94537313  0.77569876  0.92320570    -0.39900
C3369       C  0.84399453  0.70582390  0.92052918    -0.04900
C3370       C  0.83796508  0.71303685  0.89346735     0.09300
C3371       C  0.83656070  0.73154075  0.89028410    -0.02200
C3372       C  0.84107666  0.74288687  0.91424958    -0.00500
C3373       C  0.84564438  0.73574862  0.94278616    -0.04100
C3374       C  0.84864865  0.71702720  0.94447079     0.02900
C3375       C  0.83575230  0.70105866  0.86716499     0.09700
C3376       C  0.83093121  0.73890437  0.86187309     0.35600
C3377       C  0.85813401  0.70904316  0.96930102     0.39100
C3378       C  0.82032174  0.69056689  0.86410815    -0.04500
C3379       C  0.81943142  0.67743476  0.84171855     0.02700
C3380       C  0.83383667  0.67502364  0.82201535    -0.04100
C3381       C  0.84915672  0.68570159  0.82481073    -0.00300
C3382       C  0.85015460  0.69861748  0.84743107    -0.02900
C3383       C  0.80570812  0.69285039  0.88479746     0.36400
C3384       C  0.86430255  0.68265579  0.80546203     0.40000
C3385       C  0.80406772  0.66588557  0.83967109     0.39100
C3386       C  0.86639883  0.70872668  0.85150833     0.36100
C3387       C  0.84598915  0.68669553  0.92328784     0.36700
C3388       C  0.84302318  0.76166035  0.90788245     0.40000
N3389       N  0.79192807  0.65649837  0.83816491    -0.38100
N3390       N  0.79410031  0.69465180  0.90143289    -0.39700
N3391       N  0.87641083  0.68009238  0.79016683    -0.37400
N3392       N  0.87938893  0.71670519  0.85490827    -0.39800
N3393       N  0.82642175  0.74478016  0.83924135    -0.39600
N3394       N  0.84468892  0.77658775  0.90248408    -0.37200
N3395       N  0.86481555  0.70373370  0.48919754    -0.38300
N3396       N  0.84742697  0.67145099  0.92532219    -0.39900
C3397       C  0.83143116  0.72660772  0.59233462    -0.04900
C3398       C  0.84704544  0.71868771  0.60393149     0.09300
C3399       C  0.86372032  0.72458308  0.59325520    -0.02200
C3400       C  0.86463790  0.73795795  0.57126186    -0.00500
C3401       C  0.84913076  0.74346385  0.55614392    -0.04100
C3402       C  0.83241729  0.73815393  0.56754670     0.02900
C3403       C  0.84584541  0.70395872  0.62671074     0.09700
C3404       C  0.87999895  0.71623830  0.60353021     0.35600
C3405       C  0.81614748  0.74439629  0.55372458     0.39100
C3406       C  0.83707174  0.68787318  0.61957092    -0.04500
C3407       C  0.83479458  0.67457470  0.64145526     0.02700
C3408       C  0.84315972  0.67614348  0.66968475    -0.04100
C3409       C  0.85315238  0.69167380  0.67591493    -0.00300
C3410       C  0.85348852  0.70589627  0.65539258    -0.02900
C3411       C  0.83069344  0.68479915  0.58941852     0.36400
C3412       C  0.86345160  0.69297325  0.70322270     0.40000
C3413       C  0.82356462  0.65940416  0.63494649     0.39100
C3414       C  0.86153780  0.72263163  0.66404462     0.36100
C3415       C  0.81429549  0.72254908  0.60547598     0.36700
C3416       C  0.88154447  0.74625453  0.56499224     0.40000
N3417       N  0.81458929  0.64731810  0.62973211    -0.38100
N3418       N  0.82571108  0.68232826  0.56531698    -0.39700
N3419       N  0.87175024  0.69408487  0.72491127    -0.37400
N3420       N  0.86799683  0.73597062  0.67088923    -0.39800
N3421       N  0.89301191  0.70956133  0.61157334    -0.39600
N3422       N  0.89514064  0.75313540  0.56175540    -0.37200
N3423       N  0.80298181  0.74926343  0.54313386    -0.38300
N3424       N  0.80064026  0.71931830  0.61599642    -0.39900
loop_ 
_geom_bond_atom_site_label_1 
_geom_bond_atom_site_label_2 
_geom_bond_distance 
_geom_bond_site_symmetry_2 
_ccdc_geom_bond_type 
C1            C2   1.537       .  S
C1            C7   1.542       .  S
C1            C5   1.527       .  S
C1         C1661   1.547       .  S
C2            H9   1.083       .  S
C2         C1715   1.365       .  D
C3            C4   1.552   1_556  S
C3         C1714   1.368       .  D
C3          C109   1.492   1_556  S
C4            C8   1.546       .  S
C4            C6   1.554   1_554  S
C4           H10   1.111       .  S
C5           H11   1.087       .  S
C5         C1718   1.360       .  D
C6         C1717   1.359       .  D
C6         C1640   1.500       .  S
C7         H1724   1.085       .  S
C7         C1720   1.363       .  D
C8         C1719   1.364       .  D
C8         C1689   1.498       .  S
H12        C1719   1.085       .  S
N13          C18   1.350       .  A
N13          C17   1.356       .  A
N13          H45   1.040       .  S
N14          C21   1.351       .  A
N14          C22   1.347       .  A
N15          C20   1.353       .  A
N15          C19   1.350       .  A
N15          H46   1.040       .  S
N16          C23   1.350       .  A
N16          C24   1.353       .  A
C17          C25   1.387       .  A
C17          C33   1.420       .  A
C18          C34   1.414       .  A
C18          C26   1.386       .  A
C19          C27   1.389       .  A
C19          C36   1.413       .  A
C20          C35   1.411       .  A
C20          C28   1.385       .  A
C21          C33   1.414       .  A
C21          C29   1.387       .  A
C22          C36   1.407       .  A
C22          C30   1.386       .  A
C23          C31   1.388       .  A
C23          C34   1.415       .  A
C24          C32   1.384       .  A
C24          C35   1.411       .  A
C25          C26   1.380       .  A
C25          H37   1.082       .  S
C26          H38   1.082       .  S
C27          C28   1.376       .  A
C27          H39   1.082       .  S
C28          H40   1.082       .  S
C29          C30   1.375       .  A
C29          H41   1.082       .  S
C30          H42   1.082       .  S
C31          C32   1.374       .  A
C31          H43   1.082       .  S
C32          H44   1.082       .  S
C33        C1696   1.511       .  S
C34        C1612   1.493       .  S
C35        C1577   1.498       .  S
C36        C1668   1.484       .  S
C47          C48   1.529       .  S
C47          C53   1.532   1_554  S
C47          C51   1.541       .  S
C47        C1521   1.545       .  S
C48          H55   1.085       .  S
C48          C49   1.360       .  D
C49        C1762   1.548   1_554  S
C49         C215   1.488   1_554  S
C50          C54   1.554       .  S
C50        C1761   1.545       .  S
C50        C1764   1.563       .  S
C50          H56   1.102       .  S
C51          H57   1.085       .  S
C51          C52   1.382       .  D
C52        C1762   1.562   1_554  S
C52        C1493   1.526       .  S
C53          H58   1.083       .  S
C53        C1766   1.353       .  D
C54        C1765   1.356       .  D
C54        C1549   1.499       .  S
N59          C64   1.356       .  A
N59          C63   1.350       .  A
N59          H91   1.039       .  S
N60          C67   1.348       .  A
N60          C68   1.353       .  A
N61          C66   1.349       .  A
N61          C65   1.353       .  A
N61          H92   1.039       .  S
N62          C69   1.352       .  A
N62          C70   1.347       .  A
C63          C71   1.387       .  A
C63          C79   1.413       .  A
C64          C80   1.420       .  A
C64          C72   1.386       .  A
C65          C73   1.385       .  A
C65          C82   1.412       .  A
C66          C81   1.413       .  A
C66          C74   1.388       .  A
C67          C79   1.413       .  A
C67          C75   1.388       .  A
C68          C82   1.412       .  A
C68          C76   1.384       .  A
C69          C77   1.386       .  A
C69          C80   1.415       .  A
C70          C78   1.386       .  A
C70          C81   1.410       .  A
C71          C72   1.379       .  A
C71          H83   1.082       .  S
C72          H84   1.082       .  S
C73          C74   1.378       .  A
C73          H85   1.082       .  S
C74          H86   1.082       .  S
C75          C76   1.373       .  A
C75          H87   1.082       .  S
C76          H88   1.082       .  S
C77          C78   1.376       .  A
C77          H89   1.082       .  S
C78          H90   1.082       .  S
C79        C1465   1.487       .  S
C80        C1556   1.514       .  S
C81        C1528   1.484       .  S
C82        C1444   1.504       .  S
O93        Ni101   1.916       .  S
O93         C103   1.281       .  A
O94       Ni1813   1.916       .  S
O94         C104   1.280       .  A
O95       Ni1813   1.923       .  S
O95         C105   1.282       .  A
O96        Ni101   1.919       .  S
O96         C106   1.282       .  A
O97        Ni102   1.918       .  S
O97         C106   1.281       .  A
O98       Ni1814   1.911       .  S
O98         C105   1.279       .  A
O99       Ni1814   1.929       .  S
O99         C104   1.283       .  A
O100       Ni102   1.926       .  S
O100        C103   1.283       .  A
Ni101      O1806   1.917   1_554  S
Ni101      O1807   1.924   1_554  S
Ni101      Ni102   2.389       .  S
Ni102      O1810   1.918   1_554  S
Ni102      O1811   1.929   1_554  S
C103       C1437   1.492       .  S
C104       C1584   1.487       .  S
C105       C1472   1.478       .  S
C106       C1605   1.485       .  S
C107        C108   1.546       .  S
C107        C113   1.545       .  S
C107        C111   1.518       .  S
C107       C1381   1.551       .  S
C108        H115   1.082       .  S
C108        C109   1.370       .  D
C109       C1822   1.552   1_554  S
C110        C114   1.552       .  S
C110       C1821   1.549       .  S
C110       C1824   1.555       .  S
C110        H116   1.108       .  S
C111        H117   1.087       .  S
C111        C112   1.355   1_554  D
C112       C1822   1.559       .  S
C112       C1353   1.496       .  S
C113        H118   1.084       .  S
C113       C1826   1.368   1_554  D
C114       C1825   1.368       .  D
C114       C1409   1.520       .  S
N119        C124   1.355       .  A
N119        C123   1.359       .  A
N119        H151   1.039       .  S
N120        C127   1.354       .  A
N120        C128   1.351       .  A
N121        C126   1.356       .  A
N121        C125   1.352       .  A
N121        H152   1.039       .  S
N122        C129   1.351       .  A
N122        C130   1.355       .  A
C123        C131   1.385       .  A
C123        C139   1.422       .  A
C124        C140   1.424       .  A
C124        C132   1.389       .  A
C125        C133   1.388       .  A
C125        C142   1.418       .  A
C126        C141   1.417       .  A
C126        C134   1.385       .  A
C127        C139   1.414       .  A
C127        C135   1.385       .  A
C128        C142   1.416       .  A
C128        C136   1.388       .  A
C129        C137   1.389       .  A
C129        C140   1.418       .  A
C130        C138   1.384       .  A
C130        C141   1.415       .  A
C131        C132   1.379       .  A
C131        H143   1.082       .  S
C132        H144   1.082       .  S
C133        C134   1.379       .  A
C133        H145   1.082       .  S
C134        H146   1.082       .  S
C135        C136   1.373       .  A
C135        H147   1.082       .  S
C136        H148   1.082       .  S
C137        C138   1.371       .  A
C137        H149   1.082       .  S
C138        H150   1.082       .  S
C139       C1297   1.514       .  S
C140       C1388   1.498       .  S
C141       C1416   1.510       .  S
C142       C1325   1.498       .  S
C153        C154   1.543       .  S
C153        C159   1.535       .  S
C153        C157   1.538       .  S
C153       C1241   1.557       .  S
C154        H161   1.076       .  S
C154       C1867   1.365       .  D
C155        C156   1.550   1_556  S
C155       C1866   1.368       .  D
C155        C321   1.490   1_556  S
C156        C160   1.543       .  S
C156        C158   1.545   1_554  S
C156        H162   1.109       .  S
C157        H163   1.083       .  S
C157       C1870   1.358       .  D
C158       C1869   1.358       .  D
C158       C1213   1.493   1_556  S
C159       H1876   1.087       .  S
C159       C1872   1.368       .  D
C160       C1871   1.368       .  D
C160       C1269   1.508       .  S
H164       C1871   1.087       .  S
N165        C170   1.352       .  A
N165        C169   1.353       .  A
N165        H197   1.040       .  S
N166        C173   1.353       .  A
N166        C174   1.350       .  A
N167        C172   1.356       .  A
N167        C171   1.352       .  A
N167        H198   1.039       .  S
N168        C175   1.349       .  A
N168        C176   1.350       .  A
C169        C177   1.385       .  A
C169        C185   1.412       .  A
C170        C186   1.417       .  A
C170        C178   1.388       .  A
C171        C179   1.388       .  A
C171        C188   1.418       .  A
C172        C187   1.417       .  A
C172        C180   1.386       .  A
C173        C185   1.412       .  A
C173        C181   1.384       .  A
C174        C188   1.416       .  A
C174        C182   1.389       .  A
C175        C183   1.387       .  A
C175        C186   1.413       .  A
C176        C184   1.385       .  A
C176        C187   1.411       .  A
C177        C178   1.378       .  A
C177        H189   1.082       .  S
C178        H190   1.082       .  S
C179        C180   1.379       .  A
C179        H191   1.082       .  S
C180        H192   1.082       .  S
C181        C182   1.373       .  A
C181        H193   1.082       .  S
C182        H194   1.082       .  S
C183        C184   1.373       .  A
C183        H195   1.082       .  S
C184        H196   1.082       .  S
C185       C1164   1.501       .  S
C186       C1248   1.499       .  S
C187       C1276   1.503       .  S
C188       C1192   1.492       .  S
O199       Ni207   1.931       .  S
O199        C209   1.283       .  A
O200      Ni1919   1.927       .  S
O200        C210   1.282       .  A
O201      Ni1919   1.914       .  S
O201        C211   1.280       .  A
O202       Ni207   1.914       .  S
O202        C212   1.281       .  A
O203       Ni208   1.917   1_554  S
O203        C212   1.281       .  A
O204      Ni1920   1.917       .  S
O204        C211   1.282       .  A
O205      Ni1920   1.928       .  S
O205        C210   1.283       .  A
O206       Ni208   1.929   1_554  S
O206        C209   1.282       .  A
Ni207      O1912   1.928   1_554  S
Ni207      O1913   1.912   1_554  S
Ni207      Ni208   2.384   1_554  S
Ni208      O1916   1.914       .  S
Ni208      O1917   1.928       .  S
C209       C1304   1.494       .  S
C210       C1157   1.493       .  S
C211       C1332   1.504       .  S
C212       C1185   1.484       .  S
C213        C214   1.546       .  S
C213        C219   1.542       .  S
C213        C217   1.522       .  S
C213       C1108   1.551       .  S
C214        H221   1.083       .  S
C214       C1927   1.368       .  D
C215        C216   1.556   1_556  S
C215       C1926   1.365       .  D
C216        C220   1.545       .  S
C216        C218   1.556       .  S
C216        H222   1.110       .  S
C217        H223   1.087       .  S
C217       C1930   1.361       .  D
C218       C1929   1.362   1_554  D
C218       C1080   1.503       .  S
C219       H1936   1.084       .  S
C219       C1932   1.366       .  D
C220       C1931   1.366       .  D
C220       C1129   1.508       .  S
H224       C1931   1.083       .  S
N225        C230   1.352       .  A
N225        C229   1.358       .  A
N225        H257   1.038       .  S
N226        C233   1.355       .  A
N226        C234   1.350       .  A
N227        C232   1.358       .  A
N227        C231   1.351       .  A
N227        H258   1.037       .  S
N228        C235   1.350       .  A
N228        C236   1.354       .  A
C229        C237   1.386       .  A
C229        C245   1.421       .  A
C230        C246   1.418       .  A
C230        C238   1.387       .  A
C231        C239   1.389       .  A
C231        C248   1.419       .  A
C232        C247   1.420       .  A
C232        C240   1.386       .  A
C233        C245   1.415       .  A
C233        C241   1.384       .  A
C234        C248   1.417       .  A
C234        C242   1.389       .  A
C235        C243   1.388       .  A
C235        C246   1.416       .  A
C236        C244   1.384       .  A
C236        C247   1.415       .  A
C237        C238   1.379       .  A
C237        H249   1.082       .  S
C238        H250   1.082       .  S
C239        C240   1.376       .  A
C239        H251   1.082       .  S
C240        H252   1.082       .  S
C241        C242   1.370       .  A
C241        H253   1.082       .  S
C242        H254   1.082       .  S
C243        C244   1.372       .  A
C243        H255   1.082       .  S
C244        H256   1.082       .  S
C245       C1136   1.513       .  S
C246       C1045   1.490       .  S
C247       C1024   1.509       .  S
C248       C1101   1.489       .  S
C259        C260   1.552       .  S
C259        C265   1.533       .  S
C259        C263   1.523       .  S
C259        C968   1.552       .  S
C260        H267   1.083       .  S
C260        C261   1.373       .  D
C261       C1974   1.556   1_554  S
C261        C367   1.503   1_554  S
C262        C266   1.559       .  S
C262       C1973   1.555       .  S
C262       C1976   1.562       .  S
C262        H268   1.107       .  S
C263        H269   1.087       .  S
C263        C264   1.367       .  D
C264       C1974   1.561   1_554  S
C264        C933   1.517   1_554  S
C265        H270   1.087       .  S
C265       C1978   1.356   1_554  D
C266       C1977   1.355       .  D
C266        C989   1.506       .  S
N271        C276   1.357       .  A
N271        C275   1.353       .  A
N271        H303   1.039       .  S
N272        C279   1.351       .  A
N272        C280   1.353       .  A
N273        C278   1.354       .  A
N273        C277   1.360       .  A
N273        H304   1.037       .  S
N274        C281   1.357       .  A
N274        C282   1.354       .  A
C275        C283   1.387       .  A
C275        C291   1.418       .  A
C276        C292   1.420       .  A
C276        C284   1.387       .  A
C277        C285   1.386       .  A
C277        C294   1.426       .  A
C278        C293   1.425       .  A
C278        C286   1.388       .  A
C279        C291   1.413       .  A
C279        C287   1.386       .  A
C280        C294   1.417       .  A
C280        C288   1.386       .  A
C281        C289   1.384       .  A
C281        C292   1.420       .  A
C282        C290   1.389       .  A
C282        C293   1.422       .  A
C283        C284   1.378       .  A
C283        H295   1.082       .  S
C284        H296   1.082       .  S
C285        C286   1.380       .  A
C285        H297   1.082       .  S
C286        H298   1.082       .  S
C287        C288   1.372       .  A
C287        H299   1.082       .  S
C288        H300   1.082       .  S
C289        C290   1.370       .  A
C289        H301   1.082       .  S
C290        H302   1.082       .  S
C291        C912   1.495       .  S
C292        C996   1.518       .  S
C293        C961   1.502       .  S
C294        C884   1.516       .  S
O305       Ni313   1.927       .  S
O305        C315   1.283       .  A
O306      Ni2025   1.932       .  S
O306        C316   1.284       .  A
O307      Ni2025   1.921       .  S
O307        C317   1.282       .  A
O308       Ni313   1.916       .  S
O308        C318   1.280       .  A
O309       Ni314   1.919       .  S
O309        C318   1.281       .  A
O310      Ni2026   1.919       .  S
O310        C317   1.280       .  A
O311      Ni2026   1.931       .  S
O311        C316   1.284       .  A
O312       Ni314   1.937       .  S
O312        C315   1.285       .  A
Ni313      O2018   1.929   1_554  S
Ni313      O2019   1.916   1_554  S
Ni313      Ni314   2.383       .  S
Ni314      O2022   1.920   1_554  S
Ni314      O2023   1.938   1_554  S
C315        C877   1.523       .  S
C316       C1017   1.502       .  S
C317        C905   1.482       .  S
C318       C1052   1.480       .  S
C319        C320   1.535       .  S
C319        C325   1.543       .  S
C319        C323   1.530       .  S
C319        C828   1.555       .  S
C320        H327   1.079       .  S
C320        C321   1.363       .  D
C321       C2034   1.560   1_554  S
C322        C326   1.566       .  S
C322       C2033   1.564       .  S
C322       C2036   1.545       .  S
C322        H328   1.099       .  S
C323        H329   1.087       .  S
C323        C324   1.359       .  D
C324       C2034   1.545   1_554  S
C324        C800   1.501       .  S
C325        H330   1.083       .  S
C325       C2038   1.377   1_554  D
C326       C2037   1.377       .  D
C326        C849   1.546       .  S
N331        C336   1.357       .  A
N331        C335   1.353       .  A
N331        H363   1.037       .  S
N332        C339   1.354       .  A
N332        C340   1.357       .  A
N333        C338   1.355       .  A
N333        C337   1.357       .  A
N333        H364   1.038       .  S
N334        C341   1.353       .  A
N334        C342   1.350       .  A
C335        C343   1.388       .  A
C335        C351   1.420       .  A
C336        C352   1.420       .  A
C336        C344   1.386       .  A
C337        C345   1.387       .  A
C337        C354   1.420       .  A
C338        C353   1.421       .  A
C338        C346   1.388       .  A
C339        C351   1.421       .  A
C339        C347   1.387       .  A
C340        C354   1.421       .  A
C340        C348   1.386       .  A
C341        C349   1.385       .  A
C341        C352   1.414       .  A
C342        C350   1.387       .  A
C342        C353   1.415       .  A
C343        C344   1.377       .  A
C343        H355   1.082       .  S
C344        H356   1.082       .  S
C345        C346   1.375       .  A
C345        H357   1.082       .  S
C346        H358   1.082       .  S
C347        C348   1.375       .  A
C347        H359   1.082       .  S
C348        H360   1.082       .  S
C349        C350   1.373       .  A
C349        H361   1.082       .  S
C350        H362   1.082       .  S
C351        C772   1.499       .  S
C352        C856   1.505       .  S
C353        C821   1.498       .  S
C354        C744   1.511       .  S
C365        C366   1.550       .  S
C365        C371   1.537       .  S
C365        C369   1.536       .  S
C365        C681   1.564       .  S
C366        H373   1.085       .  S
C366       C2079   1.371       .  D
C367        C368   1.555   1_556  S
C367       C2078   1.373       .  D
C368        C372   1.548       .  S
C368        C370   1.553   1_554  S
C368        H374   1.108       .  S
C369        H375   1.081       .  S
C369       C2082   1.359       .  D
C370       C2081   1.359       .  D
C370        C660   1.497   1_556  S
C371       H2088   1.086       .  S
C371       C2084   1.369       .  D
C372       C2083   1.368   1_554  D
C372        C716   1.519       .  S
H376       C2083   1.086       .  S
N377        C382   1.355       .  A
N377        C381   1.355       .  A
N377        H409   1.039       .  S
N378        C385   1.350       .  A
N378        C386   1.351       .  A
N379        C384   1.353       .  A
N379        C383   1.356       .  A
N379        H410   1.039       .  S
N380        C387   1.355       .  A
N380        C388   1.353       .  A
C381        C389   1.387       .  A
C381        C397   1.421       .  A
C382        C398   1.418       .  A
C382        C390   1.386       .  A
C383        C391   1.386       .  A
C383        C400   1.418       .  A
C384        C399   1.418       .  A
C384        C392   1.387       .  A
C385        C397   1.414       .  A
C385        C393   1.387       .  A
C386        C400   1.411       .  A
C386        C394   1.385       .  A
C387        C395   1.386       .  A
C387        C398   1.417       .  A
C388        C396   1.387       .  A
C388        C399   1.418       .  A
C389        C390   1.377       .  A
C389        H401   1.082       .  S
C390        H402   1.081       .  S
C391        C392   1.379       .  A
C391        H403   1.082       .  S
C392        H404   1.082       .  S
C393        C394   1.374       .  A
C393        H405   1.082       .  S
C394        H406   1.082       .  S
C395        C396   1.373       .  A
C395        H407   1.082       .  S
C396        H408   1.082       .  S
C397        C688   1.504       .  S
C398        C597   1.505       .  S
C399        C632   1.500       .  S
C400        C709   1.504       .  S
O411      Ni2131   1.918       .  S
O411        C421   1.281       .  A
O412       Ni419   1.925   1_554  S
O412        C422   1.283       .  A
O413       Ni419   1.928   1_554  S
O413        C423   1.281       .  A
O414      Ni2131   1.924       .  S
O414        C424   1.283       .  A
O415      Ni2132   1.924       .  S
O415        C424   1.280       .  A
O416       Ni420   1.923       .  S
O416        C423   1.282       .  A
O417       Ni420   1.935       .  S
O417        C422   1.285       .  A
O418      Ni2132   1.935       .  S
O418        C421   1.286       .  A
Ni419      O2123   1.918       .  S
Ni419      O2126   1.928       .  S
Ni419      Ni420   2.385   1_556  S
Ni420      O2127   1.929   1_554  S
Ni420      O2130   1.936   1_554  S
C421        C604   1.503       .  S
C422        C737   1.506       .  S
C423        C625   1.486       .  S
C424        C765   1.483       .  S
O425       Ni433   1.904       .  S
O425       C2147   1.279       .  A
O426       Ni433   1.921       .  S
O426       C2148   1.282       .  A
O427       Ni433   1.929       .  S
O427       C2149   1.285       .  A
O428       Ni433   1.917       .  S
O428       C2150   1.281       .  A
O429       Ni434   1.898       .  S
O429        C438   1.277       .  A
O430       Ni434   1.914       .  S
O430        C437   1.280       .  A
O431       Ni434   1.934       .  S
O431        C436   1.286   1_554  A
O432       Ni434   1.929       .  S
O432        C435   1.284       .  A
Ni433     Ni2146   2.386       .  S
Ni434     Ni2145   2.387   1_554  S
C435        C569   1.483       .  S
C435       O2137   1.278   1_554  A
C436        C940   1.505   1_565  S
C436       O2138   1.281       .  A
C437       C1220   1.502       .  S
C437       O2139   1.285   1_554  A
C438        C541   1.473   1_565  S
C438       O2140   1.282   1_554  A
O439       Ni447   1.921       .  S
O439        C449   1.283       .  A
O440       Ni447   1.924       .  S
O440        C450   1.283       .  A
O441       Ni447   1.919       .  S
O441        C451   1.281       .  A
O442       Ni447   1.907       .  S
O442        C452   1.278       .  A
O443       Ni448   1.917       .  S
O443       C2164   1.282       .  A
O444       Ni448   1.927       .  S
O444       C2163   1.283       .  A
O445       Ni448   1.917       .  S
O445       C2162   1.282       .  A
O446       Ni448   1.913       .  S
O446       C2161   1.280       .  A
Ni447     Ni2160   2.382   1_554  S
Ni448     Ni2159   2.384       .  S
C449        C513   1.487   1_455  S
C449       O2158   1.280   1_554  A
C450        C653   1.511       .  S
C450       O2157   1.282   1_554  A
C451       C1500   1.492   1_455  S
C451       O2156   1.284   1_554  A
C452        C548   1.491       .  S
C452       O2155   1.282   1_554  A
O453       Ni461   1.902       .  S
O453       C2175   1.277       .  A
O454       Ni461   1.913       .  S
O454       C2176   1.280       .  A
O455       Ni461   1.927       .  S
O455       C2177   1.284       .  A
O456       Ni461   1.925       .  S
O456       C2178   1.283       .  A
O457       Ni462   1.908       .  S
O457        C466   1.279       .  A
O458       Ni462   1.921       .  S
O458        C465   1.281       .  A
O459       Ni462   1.932       .  S
O459        C464   1.285   1_554  A
O460       Ni462   1.930       .  S
O460        C463   1.284       .  A
Ni461     Ni2174   2.383       .  S
Ni462     Ni2173   2.383   1_554  S
C463        C485   1.479   1_455  S
C463       O2165   1.277   1_554  A
C464        C793   1.500       .  S
C464       O2166   1.279       .  A
C465       C1633   1.517   1_455  S
C465       O2167   1.284   1_554  A
C466        C576   1.485       .  S
C466       O2168   1.283   1_554  A
O467       Ni475   1.908       .  S
O467        C477   1.280   1_554  A
O468       Ni475   1.921       .  S
O468        C478   1.282   1_564  A
O469       Ni475   1.934       .  S
O469        C479   1.285   1_554  A
O470       Ni475   1.921       .  S
O470        C480   1.282   1_554  A
O471       Ni476   1.909       .  S
O471       C2192   1.279       .  A
O472       Ni476   1.916       .  S
O472       C2191   1.281       .  A
O473       Ni476   1.932       .  S
O473       C2190   1.285   1_565  A
O474       Ni476   1.929       .  S
O474       C2189   1.283       .  A
Ni475     Ni2188   2.378   1_554  S
Ni476     Ni2187   2.380       .  S
C477        C492   1.501       .  S
C477       O2186   1.283       .  A
C478       C1073   1.522   1_556  S
C478       O2185   1.285   1_545  A
C479       C1360   1.506       .  S
C479       O2184   1.280       .  A
C480        C520   1.481   1_565  S
C480       O2183   1.279       .  A
C481        C486   1.411       .  A
C481       C2194   1.411       .  A
C481        C499   1.450       .  S
C482        C483   1.409       .  A
C482       C2193   1.412   1_556  A
C482        C487   1.494       .  S
C483        C484   1.408       .  A
C483        C488   1.451       .  S
C484        C485   1.414   1_556  A
C484        C500   1.451       .  S
C485       C2198   1.411       .  A
C486       C2197   1.412       .  A
C486        C489   1.451   1_655  S
C487        C490   1.409       .  A
C487        C494   1.406   1_556  A
C488        N505   1.157       .  T
C489        N507   1.157       .  T
C490        C491   1.413       .  A
C490        C495   1.451       .  S
C491        C492   1.421       .  A
C491        C497   1.450       .  S
C492        C493   1.423   1_556  A
C493        C494   1.409       .  A
C493        C496   1.452       .  S
C494        C498   1.452       .  S
C495        N502   1.157       .  T
C496        N503   1.157       .  T
C497        N501   1.158       .  T
C498        N504   1.157       .  T
C499        N508   1.157       .  T
C500        N506   1.157       .  T
C509        C510   1.409   1_554  A
C509        C514   1.409       .  A
C509        C527   1.452       .  S
C510       C2223   1.410       .  A
C510        C515   1.493       .  S
C511        C512   1.409       .  A
C511       C2222   1.407       .  A
C511        C516   1.451       .  S
C512       C2225   1.418       .  A
C512        C528   1.451       .  S
C513        C514   1.415       .  A
C513       C2224   1.417   1_554  A
C514        C517   1.448   1_655  S
C515        C518   1.411   1_556  A
C515       C2234   1.409       .  A
C516        N533   1.157       .  T
C517        N535   1.156       .  T
C518        C519   1.410       .  A
C518        C523   1.451       .  S
C519        C520   1.413   1_554  A
C519        C525   1.451       .  S
C520       C2233   1.414       .  A
C521        C522   1.407       .  A
C521       C2232   1.417       .  A
C521        C524   1.447   1_545  S
C522       C2227   1.406       .  A
C522        C526   1.452       .  S
C523        N530   1.157       .  T
C524        N531   1.156       .  T
C525        N529   1.157       .  T
C526        N532   1.157       .  T
C527        N536   1.157       .  T
C528        N534   1.157       .  T
C537        C538   1.406       .  A
C537        C542   1.403       .  A
C537        C555   1.452       .  S
C538       C2251   1.410   1_554  A
C538        C543   1.484       .  S
C539        C540   1.407       .  A
C539       C2250   1.410       .  A
C539        C544   1.451       .  S
C540       C2253   1.411       .  A
C540        C556   1.451   1_545  S
C541        C542   1.416       .  A
C541       C2252   1.411   1_554  A
C542        C545   1.452       .  S
C543        C550   1.406       .  A
C543       C2258   1.405   1_554  A
C544        N561   1.157       .  T
C545        N563   1.157       .  T
C546        C547   1.408       .  A
C546       C2255   1.406       .  A
C546        C551   1.451       .  S
C547       C2260   1.420       .  A
C547        C553   1.451       .  S
C548        C549   1.422       .  A
C548       C2259   1.420   1_554  A
C549        C550   1.407       .  A
C549        C552   1.451       .  S
C550        C554   1.453       .  S
C551        N558   1.157       .  T
C552        N559   1.158       .  T
C553        N557   1.157       .  T
C554        N560   1.157       .  T
C555        N564   1.157       .  T
C556        N562   1.157       .  T
C565        C570   1.407       .  A
C565       C2278   1.409       .  A
C565        C583   1.451       .  S
C566        C567   1.413       .  A
C566       C2277   1.410   1_554  A
C566        C571   1.496       .  S
C567        C568   1.412       .  A
C567        C572   1.450       .  S
C568        C569   1.413       .  A
C568        C584   1.451       .  S
C569       C2282   1.415   1_554  A
C570       C2281   1.415       .  A
C570        C573   1.452       .  S
C571        C578   1.412   1_554  A
C571       C2286   1.410       .  A
C572        N589   1.157       .  T
C573        N591   1.157       .  T
C574        C575   1.408       .  A
C574       C2283   1.409       .  A
C574        C579   1.451       .  S
C575       C2288   1.417       .  A
C575        C581   1.452       .  S
C576        C577   1.413   1_554  A
C576       C2287   1.416       .  A
C577        C578   1.411       .  A
C577        C580   1.450       .  S
C578        C582   1.450       .  S
C579        N586   1.157       .  T
C580        N587   1.157       .  T
C581        N585   1.157       .  T
C582        N588   1.157       .  T
C583        N592   1.157       .  T
C584        N590   1.157       .  T
C593        C594   1.414       .  A
C593        C598   1.413       .  A
C593        C611   1.451       .  S
C594        C595   1.416       .  A
C594        C599   1.510       .  S
C595        C596   1.415       .  A
C595        C600   1.450       .  S
C596        C597   1.413       .  A
C596        C612   1.450       .  S
C597        C598   1.414       .  A
C598        C601   1.450       .  S
C599        C602   1.414       .  A
C599        C606   1.412       .  A
C600        N617   1.157       .  T
C601        N619   1.157       .  T
C602        C603   1.416       .  A
C602        C607   1.451       .  S
C603        C604   1.418       .  A
C603        C609   1.451       .  S
C604        C605   1.420       .  A
C605        C606   1.414       .  A
C605        C608   1.451       .  S
C606        C610   1.451       .  S
C607        N614   1.157       .  T
C608        N615   1.158       .  T
C609        N613   1.158       .  T
C610        N616   1.157       .  T
C611        N620   1.157       .  T
C612        N618   1.157       .  T
C621        C622   1.412       .  A
C621        C626   1.414       .  A
C621        C639   1.450       .  S
C622        C623   1.411       .  A
C622        C627   1.500       .  S
C623        C624   1.411       .  A
C623        C628   1.450       .  S
C624        C625   1.410       .  A
C624        C640   1.447       .  S
C625        C626   1.413       .  A
C626        C629   1.449       .  S
C627        C630   1.412       .  A
C627        C634   1.412       .  A
C628        N645   1.157       .  T
C629        N647   1.157   1_554  T
C630        C631   1.412       .  A
C630        C635   1.450       .  S
C631        C632   1.413       .  A
C631        C637   1.450       .  S
C632        C633   1.413       .  A
C633        C634   1.411       .  A
C633        C636   1.450       .  S
C634        C638   1.450       .  S
C635        N642   1.157       .  T
C636        N643   1.157       .  T
C637        N641   1.157       .  T
C638        N644   1.157       .  T
C639        N648   1.157       .  T
C640        N646   1.156       .  T
C649        C650   1.407       .  A
C649        C654   1.416       .  A
C649        C667   1.451       .  S
C650       C2363   1.412   1_554  A
C650        C655   1.508       .  S
C651        C652   1.414       .  A
C651       C2362   1.411       .  A
C651        C656   1.451       .  S
C652       C2365   1.419       .  A
C652        C668   1.451       .  S
C653        C654   1.427       .  A
C653       C2364   1.421   1_554  A
C654        C657   1.451       .  S
C655        C662   1.410       .  A
C655       C2370   1.416       .  A
C656        N673   1.157       .  T
C657        N675   1.158       .  T
C658        C659   1.415       .  A
C658       C2367   1.415       .  A
C658        C663   1.450       .  S
C659       C2372   1.410       .  A
C659        C665   1.449       .  S
C660        C661   1.418       .  A
C660       C2371   1.410       .  A
C661        C662   1.412       .  A
C661        C664   1.452       .  S
C662        C666   1.450       .  S
C663        N670   1.157       .  T
C664        N671   1.157       .  T
C665        N669   1.157       .  T
C666        N672   1.157       .  T
C667        N676   1.157       .  T
C668        N674   1.157       .  T
C677        C678   1.407       .  A
C677        C682   1.412       .  A
C677        C695   1.454       .  S
C678        C679   1.406       .  A
C678        C683   1.505       .  S
C679        C680   1.414       .  A
C679        C684   1.454       .  S
C680        C681   1.429       .  A
C680        C696   1.443       .  S
C681        C682   1.434       .  A
C682        C685   1.450       .  S
C683        C686   1.415       .  A
C683        C690   1.412       .  A
C684        N701   1.157       .  T
C685        N703   1.158       .  T
C686        C687   1.409       .  A
C686        C691   1.451       .  S
C687        C688   1.414       .  A
C687        C693   1.451       .  S
C688        C689   1.417       .  A
C689        C690   1.411       .  A
C689        C692   1.450       .  S
C690        C694   1.451       .  S
C691        N698   1.157       .  T
C692        N699   1.157       .  T
C693        N697   1.157       .  T
C694        N700   1.157       .  T
C695        N704   1.157       .  T
C696        N702   1.154       .  T
C705        C706   1.412       .  A
C705        C710   1.413       .  A
C705        C723   1.451       .  S
C706        C707   1.413       .  A
C706        C711   1.505       .  S
C707        C708   1.414       .  A
C707        C712   1.450       .  S
C708        C709   1.413       .  A
C708        C724   1.450       .  S
C709        C710   1.415       .  A
C710        C713   1.449       .  S
C711        C714   1.409       .  A
C711        C718   1.406       .  A
C712        N729   1.157       .  T
C713        N731   1.157       .  T
C714        C715   1.419       .  A
C714        C719   1.451       .  S
C715        C716   1.424       .  A
C715        C721   1.447       .  S
C716        C717   1.425       .  A
C717        C718   1.412       .  A
C717        C720   1.449       .  S
C718        C722   1.453       .  S
C719        N726   1.157       .  T
C720        N727   1.156       .  T
C721        N725   1.157       .  T
C722        N728   1.157       .  T
C723        N732   1.157       .  T
C724        N730   1.157       .  T
C733        C734   1.416       .  A
C733        C738   1.417       .  A
C733        C751   1.451       .  S
C734        C735   1.414       .  A
C734        C739   1.516       .  S
C735        C736   1.417       .  A
C735        C740   1.450       .  S
C736        C737   1.420       .  A
C736        C752   1.452       .  S
C737        C738   1.418       .  A
C738        C741   1.450       .  S
C739        C742   1.417       .  A
C739        C746   1.415       .  A
C740        N757   1.157       .  T
C741        N759   1.158       .  T
C742        C743   1.418       .  A
C742        C747   1.450       .  S
C743        C744   1.414       .  A
C743        C749   1.450       .  S
C744        C745   1.414       .  A
C745        C746   1.415       .  A
C745        C748   1.450       .  S
C746        C750   1.450       .  S
C747        N754   1.157       .  T
C748        N755   1.157       .  T
C749        N753   1.157       .  T
C750        N756   1.157       .  T
C751        N760   1.157       .  T
C752        N758   1.157       .  T
C761        C762   1.411       .  A
C761        C766   1.409       .  A
C761        C779   1.450       .  S
C762        C763   1.413       .  A
C762        C767   1.498       .  S
C763        C764   1.414       .  A
C763        C768   1.450       .  S
C764        C765   1.412       .  A
C764        C780   1.450       .  S
C765        C766   1.409       .  A
C766        C769   1.447       .  S
C767        C770   1.412       .  A
C767        C774   1.411       .  A
C768        N785   1.157       .  T
C769        N787   1.157       .  T
C770        C771   1.413       .  A
C770        C775   1.450       .  S
C771        C772   1.413       .  A
C771        C777   1.450       .  S
C772        C773   1.412       .  A
C773        C774   1.410       .  A
C773        C776   1.450       .  S
C774        C778   1.450       .  S
C775        N782   1.157       .  T
C776        N783   1.157       .  T
C777        N781   1.157       .  T
C778        N784   1.157       .  T
C779        N788   1.157       .  T
C780       N2498   1.157       .  T
N786       C2492   1.157   1_554  T
C789        C794   1.413       .  A
C789       C2502   1.407       .  A
C789        C807   1.452       .  S
C790        C791   1.413   1_556  A
C790       C2501   1.407       .  A
C790        C795   1.503       .  S
C791        C792   1.416       .  A
C791        C796   1.450       .  S
C792        C793   1.415   1_554  A
C792        C808   1.449       .  S
C793       C2506   1.425       .  A
C794       C2505   1.426       .  A
C794        C797   1.452       .  S
C795        C798   1.411   1_556  A
C795       C2514   1.410       .  A
C796        N813   1.157       .  T
C797        N815   1.158       .  T
C798        C799   1.413       .  A
C798        C803   1.450       .  S
C799        C800   1.417       .  A
C799        C805   1.451       .  S
C800       C2513   1.416   1_554  A
C801        C802   1.415       .  A
C801       C2512   1.415       .  A
C801        C804   1.448       .  S
C802       C2507   1.411       .  A
C802        C806   1.451       .  S
C803        N810   1.157       .  T
C804        N811   1.157       .  T
C805        N809   1.157       .  T
C806        N812   1.157       .  T
C807        N816   1.157       .  T
C808        N814   1.157       .  T
C817        C818   1.411       .  A
C817        C822   1.408       .  A
C817        C835   1.451       .  S
C818        C819   1.413       .  A
C818        C823   1.498       .  S
C819        C820   1.412       .  A
C819        C824   1.450       .  S
C820        C821   1.413       .  A
C820        C836   1.450       .  S
C821        C822   1.414       .  A
C822        C825   1.451       .  S
C823        C826   1.408       .  A
C823        C830   1.406       .  A
C824        N841   1.157       .  T
C825        N843   1.157       .  T
C826        C827   1.418       .  A
C826        C831   1.451       .  S
C827        C828   1.427       .  A
C827        C833   1.448       .  S
C828        C829   1.425       .  A
C829        C830   1.406       .  A
C829        C832   1.451       .  S
C830        C834   1.452       .  S
C831        N838   1.157       .  T
C832        N839   1.158       .  T
C833        N837   1.158       .  T
C834        N840   1.157       .  T
C835        N844   1.157       .  T
C836        N842   1.157       .  T
C845        C846   1.400       .  A
C845        C850   1.413       .  A
C845        C863   1.455       .  S
C846        C847   1.406       .  A
C846        C851   1.507       .  S
C847        C848   1.424       .  A
C847        C852   1.452       .  S
C848        C849   1.435       .  A
C848        C864   1.445       .  S
C849        C850   1.437       .  A
C850        C853   1.448       .  S
C851        C854   1.413       .  A
C851        C858   1.413       .  A
C852        N869   1.157       .  T
C853       N2583   1.156       .  T
C854        C855   1.414       .  A
C854        C859   1.450       .  S
C855        C856   1.413       .  A
C855        C861   1.450       .  S
C856        C857   1.413       .  A
C857        C858   1.415       .  A
C857        C860   1.449       .  S
C858        C862   1.450       .  S
C859        N866   1.157       .  T
C860        N867   1.157       .  T
C861        N865   1.157       .  T
C862        N868   1.157       .  T
C863        N872   1.157       .  T
C864        N870   1.158       .  T
N871       C2565   1.156   1_554  T
C873        C874   1.413       .  A
C873        C878   1.421       .  A
C873        C891   1.452       .  S
C874        C875   1.410       .  A
C874        C879   1.517       .  S
C875        C876   1.416       .  A
C875        C880   1.452       .  S
C876        C877   1.427       .  A
C876        C892   1.451       .  S
C877        C878   1.427       .  A
C878        C881   1.451       .  S
C879        C882   1.416       .  A
C879        C886   1.416       .  A
C880        N897   1.157       .  T
C881        N899   1.158       .  T
C882        C883   1.416       .  A
C882        C887   1.451       .  S
C883        C884   1.418       .  A
C883        C889   1.451       .  S
C884        C885   1.415       .  A
C885        C886   1.418       .  A
C885        C888   1.449       .  S
C886        C890   1.450       .  S
C887        N894   1.157       .  T
C888        N895   1.157       .  T
C889        N893   1.157       .  T
C890        N896   1.157       .  T
C891        N900   1.157       .  T
C892        N898   1.158       .  T
C901        C902   1.410       .  A
C901        C906   1.409       .  A
C901        C919   1.451       .  S
C902        C903   1.411       .  A
C902        C907   1.496       .  S
C903        C904   1.413       .  A
C903        C908   1.450       .  S
C904        C905   1.413       .  A
C904        C920   1.451       .  S
C905        C906   1.411       .  A
C906        C909   1.448       .  S
C907        C910   1.411       .  A
C907        C914   1.411       .  A
C908        N925   1.157       .  T
C909       N2639   1.156       .  T
C910        C911   1.409       .  A
C910        C915   1.450       .  S
C911        C912   1.412       .  A
C911        C917   1.450       .  S
C912        C913   1.412       .  A
C913        C914   1.411       .  A
C913        C916   1.450       .  S
C914        C918   1.450       .  S
C915        N922   1.157       .  T
C916        N923   1.157       .  T
C917        N921   1.157       .  T
C918        N924   1.157       .  T
C919        N928   1.157       .  T
C920        N926   1.157       .  T
N927       C2621   1.156       .  T
C929        C930   1.411   1_554  A
C929        C934   1.413       .  A
C929        C947   1.451       .  S
C930       C2643   1.416       .  A
C930        C935   1.512       .  S
C931        C932   1.419       .  A
C931       C2642   1.415       .  A
C931        C936   1.449       .  S
C932       C2645   1.414       .  A
C932        C948   1.446       .  S
C933        C934   1.422   1_556  A
C933       C2644   1.414       .  A
C934        C937   1.452       .  S
C935        C942   1.416   1_556  A
C935       C2650   1.409       .  A
C936        N953   1.157       .  T
C937        N955   1.157       .  T
C938        C939   1.416       .  A
C938       C2647   1.410       .  A
C938        C943   1.452       .  S
C939       C2652   1.424       .  A
C939        C945   1.451       .  S
C940        C941   1.415   1_556  A
C940       C2651   1.424       .  A
C941        C942   1.419       .  A
C941        C944   1.449       .  S
C942        C946   1.450       .  S
C943        N950   1.157       .  T
C944        N951   1.157       .  T
C945        N949   1.157       .  T
C946        N952   1.157       .  T
C947        N956   1.157       .  T
C948        N954   1.158       .  T
C957        C958   1.414       .  A
C957        C962   1.413       .  A
C957        C975   1.450       .  S
C958        C959   1.413       .  A
C958        C963   1.503       .  S
C959        C960   1.410       .  A
C959        C964   1.451       .  S
C960        C961   1.414       .  A
C960        C976   1.451       .  S
C961        C962   1.413       .  A
C962        C965   1.450       .  S
C963        C966   1.408       .  A
C963        C970   1.413       .  A
C964        N981   1.157       .  T
C965        N983   1.157       .  T
C966        C967   1.406       .  A
C966        C971   1.453       .  S
C967        C968   1.427       .  A
C967        C973   1.454       .  S
C968        C969   1.421       .  A
C969        C970   1.419       .  A
C969        C972   1.449       .  S
C970        C974   1.450       .  S
C971        N978   1.157       .  T
C972        N979   1.158       .  T
C973        N977   1.157       .  T
C974        N980   1.157       .  T
C975        N984   1.157       .  T
C976        N982   1.157       .  T
C985        C986   1.417       .  A
C985        C990   1.414       .  A
C985       C1003   1.451       .  S
C986        C987   1.417       .  A
C986        C991   1.519       .  S
C987        C988   1.417       .  A
C987        C992   1.451       .  S
C988        C989   1.419       .  A
C988       C1004   1.450       .  S
C989        C990   1.412       .  A
C990        C993   1.449       .  S
C991        C994   1.416       .  A
C991        C998   1.418       .  A
C992       N1009   1.157       .  T
C993       N1011   1.158       .  T
C994        C995   1.418       .  A
C994        C999   1.450       .  S
C995        C996   1.418       .  A
C995       C1001   1.450       .  S
C996        C997   1.416       .  A
C997        C998   1.415       .  A
C997       C1000   1.451       .  S
C998       C1002   1.451       .  S
C999       N1006   1.157       .  T
C1000      N1007   1.157       .  T
C1001      N1005   1.157       .  T
C1002      N1008   1.157       .  T
C1003      N1012   1.157       .  T
C1004      N1010   1.157       .  T
C1013      C1014   1.415       .  A
C1013      C1018   1.416       .  A
C1013      C1031   1.451       .  S
C1014      C1015   1.415       .  A
C1014      C1019   1.516       .  S
C1015      C1016   1.419       .  A
C1015      C1020   1.450       .  S
C1016      C1017   1.417       .  A
C1016      C1032   1.451       .  S
C1017      C1018   1.416       .  A
C1018      C1021   1.451       .  S
C1019      C1022   1.416       .  A
C1019      C1026   1.417       .  A
C1020      N1037   1.157       .  T
C1021      N1039   1.157       .  T
C1022      C1023   1.416       .  A
C1022      C1027   1.450       .  S
C1023      C1024   1.412       .  A
C1023      C1029   1.450       .  S
C1024      C1025   1.413       .  A
C1025      C1026   1.417       .  A
C1025      C1028   1.450       .  S
C1026      C1030   1.450       .  S
C1027      N1034   1.157       .  T
C1028      N1035   1.157       .  T
C1029      N1033   1.157       .  T
C1030      N1036   1.157       .  T
C1031      N1040   1.157       .  T
C1032      N1038   1.157       .  T
C1041      C1042   1.411       .  A
C1041      C1046   1.409       .  A
C1041      C1059   1.450       .  S
C1042      C1043   1.411       .  A
C1042      C1047   1.493       .  S
C1043      C1044   1.409       .  A
C1043      C1048   1.450       .  S
C1044      C1045   1.411       .  A
C1044      C1060   1.450       .  S
C1045      C1046   1.411       .  A
C1046      C1049   1.451       .  S
C1047      C1050   1.411       .  A
C1047      C1054   1.410       .  A
C1048      N1065   1.157       .  T
C1049      N1067   1.157       .  T
C1050      C1051   1.409       .  A
C1050      C1055   1.451       .  S
C1051      C1052   1.412       .  A
C1051      C1057   1.450       .  S
C1052      C1053   1.413       .  A
C1053      C1054   1.410       .  A
C1053      C1056   1.451       .  S
C1054      C1058   1.450       .  S
C1055      N1062   1.157       .  T
C1056      N2775   1.157   1_554  T
C1057      N1061   1.157       .  T
C1058      N1064   1.157       .  T
C1059      N1068   1.157       .  T
C1060      N1066   1.157       .  T
N1063      C2768   1.157       .  T
C1069      C1074   1.416       .  A
C1069      C2782   1.409       .  A
C1069      C1087   1.452       .  S
C1070      C1071   1.412       .  A
C1070      C2781   1.411   1_554  A
C1070      C1075   1.514       .  S
C1071      C1072   1.419       .  A
C1071      C1076   1.451       .  S
C1072      C1073   1.427       .  A
C1072      C1088   1.451       .  S
C1073      C2786   1.427   1_554  A
C1074      C2785   1.426       .  A
C1074      C1077   1.450       .  S
C1075      C1082   1.419       .  A
C1075      C2790   1.412       .  A
C1076      N1093   1.157       .  T
C1077      N1095   1.157       .  T
C1078      C1079   1.409       .  A
C1078      C2787   1.408       .  A
C1078      C1083   1.451       .  S
C1079      C2792   1.417       .  A
C1079      C1085   1.449       .  S
C1080      C1081   1.412       .  A
C1080      C2791   1.417       .  A
C1081      C1082   1.421       .  A
C1081      C1084   1.450       .  S
C1082      C1086   1.450       .  S
C1083      N1090   1.157       .  T
C1084      N1091   1.158       .  T
C1085      N1089   1.156       .  T
C1086      N1092   1.157       .  T
C1087      N1096   1.157       .  T
C1088      N1094   1.158       .  T
C1097      C1098   1.410       .  A
C1097      C1102   1.407       .  A
C1097      C1115   1.450       .  S
C1098      C1099   1.411       .  A
C1098      C1103   1.490       .  S
C1099      C1100   1.407       .  A
C1099      C1104   1.451       .  S
C1100      C1101   1.411       .  A
C1100      C1116   1.451       .  S
C1101      C1102   1.412       .  A
C1102      C1105   1.451       .  S
C1103      C1106   1.402       .  A
C1103      C1110   1.406       .  A
C1104      N1121   1.157       .  T
C1105      N1123   1.157       .  T
C1106      C1107   1.407       .  A
C1106      C1111   1.455       .  S
C1107      C1108   1.432       .  A
C1107      C1113   1.451       .  S
C1108      C1109   1.427       .  A
C1109      C1110   1.414       .  A
C1109      C1112   1.450       .  S
C1110      C1114   1.451       .  S
C1111      N1118   1.157       .  T
C1112      N1119   1.158       .  T
C1113      N1117   1.157       .  T
C1114      N1120   1.157       .  T
C1115      N1124   1.157       .  T
C1116      N1122   1.157       .  T
C1125      C1126   1.414       .  A
C1125      C1130   1.418       .  A
C1125      C1143   1.450       .  S
C1126      C1127   1.412       .  A
C1126      C1131   1.512       .  S
C1127      C1128   1.413       .  A
C1127      C1132   1.450       .  S
C1128      C1129   1.418       .  A
C1128      C1144   1.451       .  S
C1129      C1130   1.416       .  A
C1130      C1133   1.448       .  S
C1131      C1134   1.414       .  A
C1131      C1138   1.415       .  A
C1132      N1149   1.157       .  T
C1133      N1151   1.157       .  T
C1134      C1135   1.418       .  A
C1134      C1139   1.450       .  S
C1135      C1136   1.418       .  A
C1135      C1141   1.450       .  S
C1136      C1137   1.414       .  A
C1137      C1138   1.414       .  A
C1137      C1140   1.450       .  S
C1138      C1142   1.451       .  S
C1139      N1146   1.157       .  T
C1140      N1147   1.157       .  T
C1141      N1145   1.157       .  T
C1142      N1148   1.157       .  T
C1143      N1152   1.157       .  T
C1144      N1150   1.157       .  T
C1153      C1154   1.411       .  A
C1153      C1158   1.413       .  A
C1153      C1171   1.451       .  S
C1154      C1155   1.411       .  A
C1154      C1159   1.503       .  S
C1155      C1156   1.415       .  A
C1155      C1160   1.450       .  S
C1156      C1157   1.415       .  A
C1156      C1172   1.450       .  S
C1157      C1158   1.414       .  A
C1158      C1161   1.448       .  S
C1159      C1162   1.413       .  A
C1159      C1166   1.412       .  A
C1160      N1177   1.157       .  T
C1161      N1179   1.156       .  T
C1162      C1163   1.414       .  A
C1162      C1167   1.449       .  S
C1163      C1164   1.413       .  A
C1163      C1169   1.450       .  S
C1164      C1165   1.413       .  A
C1165      C1166   1.413       .  A
C1165      C1168   1.450       .  S
C1166      C1170   1.450       .  S
C1167      N1174   1.157       .  T
C1168      N1175   1.157       .  T
C1169      N1173   1.157       .  T
C1170      N1176   1.157       .  T
C1171      N1180   1.157       .  T
C1172      N1178   1.157       .  T
C1181      C1182   1.413       .  A
C1181      C1186   1.410       .  A
C1181      C1199   1.452       .  S
C1182      C1183   1.412       .  A
C1182      C1187   1.498       .  S
C1183      C1184   1.410       .  A
C1183      C1188   1.451       .  S
C1184      C1185   1.414       .  A
C1184      C1200   1.451       .  S
C1185      C1186   1.414       .  A
C1186      C1189   1.451       .  S
C1187      C1190   1.414       .  A
C1187      C1194   1.413       .  A
C1188      N1205   1.157       .  T
C1189      N1207   1.157       .  T
C1190      C1191   1.410       .  A
C1190      C1195   1.451       .  S
C1191      C1192   1.411       .  A
C1191      C1197   1.451       .  S
C1192      C1193   1.411       .  A
C1193      C1194   1.408       .  A
C1193      C1196   1.451       .  S
C1194      C1198   1.450       .  S
C1195      N1202   1.157       .  T
C1196      N1203   1.157       .  T
C1197      N1201   1.157       .  T
C1198      N1204   1.157       .  T
C1199      N1208   1.157       .  T
C1200      N1206   1.157       .  T
C1209      C1210   1.411       .  A
C1209      C1214   1.412       .  A
C1209      C1227   1.450       .  S
C1210      C2923   1.416       .  A
C1210      C1215   1.506       .  S
C1211      C1212   1.415       .  A
C1211      C2922   1.415       .  A
C1211      C1216   1.450       .  S
C1212      C2925   1.409       .  A
C1212      C1228   1.449       .  S
C1213      C1214   1.416       .  A
C1213      C2924   1.410   1_554  A
C1214      C1217   1.452       .  S
C1215      C1222   1.407       .  A
C1215      C2930   1.414   1_554  A
C1216      N1233   1.157       .  T
C1217      N1235   1.157       .  T
C1218      C1219   1.417       .  A
C1218      C2927   1.412       .  A
C1218      C1223   1.450       .  S
C1219      C2932   1.418       .  A
C1219      C1225   1.450       .  S
C1220      C1221   1.425       .  A
C1220      C2931   1.416   1_554  A
C1221      C1222   1.412       .  A
C1221      C1224   1.452       .  S
C1222      C1226   1.452       .  S
C1223      N1230   1.157       .  T
C1224      N1231   1.158       .  T
C1225      N1229   1.157       .  T
C1226      N1232   1.157       .  T
C1227      N1236   1.157       .  T
C1228      N1234   1.157       .  T
C1237      C1238   1.409       .  A
C1237      C1242   1.417       .  A
C1237      C1255   1.453       .  S
C1238      C1239   1.407       .  A
C1238      C1243   1.503       .  S
C1239      C1240   1.405       .  A
C1239      C1244   1.454       .  S
C1240      C1241   1.429       .  A
C1240      C1256   1.451       .  S
C1241      C1242   1.431       .  A
C1242      C1245   1.450       .  S
C1243      C1246   1.413       .  A
C1243      C1250   1.416       .  A
C1244      N1261   1.157       .  T
C1245      N1263   1.157       .  T
C1246      C1247   1.411       .  A
C1246      C1251   1.450       .  S
C1247      C1248   1.416       .  A
C1247      C1253   1.451       .  S
C1248      C1249   1.412       .  A
C1249      C1250   1.406       .  A
C1249      C1252   1.452       .  S
C1250      C1254   1.452       .  S
C1251      N1258   1.157       .  T
C1252      N1259   1.157       .  T
C1253      N1257   1.157       .  T
C1254      N1260   1.157       .  T
C1255      N1264   1.157       .  T
C1256      N1262   1.158       .  T
C1265      C1266   1.414       .  A
C1265      C1270   1.418       .  A
C1265      C1283   1.450       .  S
C1266      C1267   1.410       .  A
C1266      C1271   1.506       .  S
C1267      C1268   1.408       .  A
C1267      C1272   1.452       .  S
C1268      C1269   1.416       .  A
C1268      C1284   1.448       .  S
C1269      C1270   1.417       .  A
C1270      C1273   1.447       .  S
C1271      C1274   1.413       .  A
C1271      C1278   1.415       .  A
C1272      N1289   1.157       .  T
C1273      N1291   1.157       .  T
C1274      C1275   1.412       .  A
C1274      C1279   1.450       .  S
C1275      C1276   1.414       .  A
C1275      C1281   1.451       .  S
C1276      C1277   1.413       .  A
C1277      C1278   1.414       .  A
C1277      C1280   1.450       .  S
C1278      C1282   1.450       .  S
C1279      N1286   1.157       .  T
C1280      N1287   1.157       .  T
C1281      N1285   1.157       .  T
C1282      N1288   1.157       .  T
C1283      N1292   1.157       .  T
C1284      N3002   1.156       .  T
N1290      C2996   1.156       .  T
C1293      C1294   1.413       .  A
C1293      C1298   1.416       .  A
C1293      C1311   1.450       .  S
C1294      C1295   1.411       .  A
C1294      C1299   1.509       .  S
C1295      C1296   1.416       .  A
C1295      C1300   1.450       .  S
C1296      C1297   1.418       .  A
C1296      C1312   1.450       .  S
C1297      C1298   1.415       .  A
C1298      C1301   1.449       .  S
C1299      C1302   1.412       .  A
C1299      C1306   1.413       .  A
C1300      N1317   1.157       .  T
C1301      N1319   1.157       .  T
C1302      C1303   1.415       .  A
C1302      C1307   1.450       .  S
C1303      C1304   1.413       .  A
C1303      C1309   1.448       .  S
C1304      C1305   1.414       .  A
C1305      C1306   1.417       .  A
C1305      C1308   1.450       .  S
C1306      C1310   1.449       .  S
C1307      N1314   1.157       .  T
C1308      N1315   1.157       .  T
C1309      N1313   1.156       .  T
C1310      N1316   1.157       .  T
C1311      N1320   1.157       .  T
C1312      N1318   1.157       .  T
C1321      C1322   1.413       .  A
C1321      C1326   1.410       .  A
C1321      C1339   1.451       .  S
C1322      C1323   1.413       .  A
C1322      C1327   1.498       .  S
C1323      C1324   1.407       .  A
C1323      C1328   1.451       .  S
C1324      C1325   1.413       .  A
C1324      C1340   1.451       .  S
C1325      C1326   1.415       .  A
C1326      C1329   1.451       .  S
C1327      C1330   1.408       .  A
C1327      C1334   1.409       .  A
C1328      N1345   1.157       .  T
C1329      N1347   1.157       .  T
C1330      C1331   1.411       .  A
C1330      C1335   1.452       .  S
C1331      C1332   1.425       .  A
C1331      C1337   1.451       .  S
C1332      C1333   1.424       .  A
C1333      C1334   1.410       .  A
C1333      C1336   1.451       .  S
C1334      C1338   1.453       .  S
C1335      N1342   1.157       .  T
C1336      N1343   1.158       .  T
C1337      N1341   1.158       .  T
C1338      N1344   1.157       .  T
C1339      N1348   1.157       .  T
C1340      N1346   1.157       .  T
C1349      C1354   1.412       .  A
C1349      C3062   1.411       .  A
C1349      C1367   1.450       .  S
C1350      C1351   1.413   1_556  A
C1350      C3061   1.411       .  A
C1350      C1355   1.507       .  S
C1351      C1352   1.415       .  A
C1351      C1356   1.451       .  S
C1352      C1353   1.416   1_554  A
C1352      C1368   1.451       .  S
C1353      C3066   1.415       .  A
C1354      C3065   1.413       .  A
C1354      C1357   1.450       .  S
C1355      C1358   1.414   1_556  A
C1355      C3074   1.406       .  A
C1356      N1373   1.157       .  T
C1357      N1375   1.157       .  T
C1358      C1359   1.419       .  A
C1358      C1363   1.450       .  S
C1359      C1360   1.417   1_554  A
C1359      C1365   1.450       .  S
C1360      C3073   1.426       .  A
C1361      C1362   1.412       .  A
C1361      C3072   1.425       .  A
C1361      C1364   1.452       .  S
C1362      C3067   1.406       .  A
C1362      C1366   1.452       .  S
C1363      N1370   1.157       .  T
C1364      N1371   1.157       .  T
C1365      N1369   1.157       .  T
C1366      N1372   1.157       .  T
C1367      N1376   1.157       .  T
C1368      N1374   1.158       .  T
C1377      C1378   1.405       .  A
C1377      C1382   1.406       .  A
C1377      C1395   1.453       .  S
C1378      C1379   1.409       .  A
C1378      C1383   1.498       .  S
C1379      C1380   1.418       .  A
C1379      C1384   1.450       .  S
C1380      C1381   1.427       .  A
C1380      C1396   1.450       .  S
C1381      C1382   1.428       .  A
C1382      C1385   1.453       .  S
C1383      C1386   1.411       .  A
C1383      C1390   1.413       .  A
C1384      N1401   1.157       .  T
C1385      N3115   1.157       .  T
C1386      C1387   1.412       .  A
C1386      C1391   1.450       .  S
C1387      C1388   1.413       .  A
C1387      C1393   1.450       .  S
C1388      C1389   1.412       .  A
C1389      C1390   1.410       .  A
C1389      C1392   1.450       .  S
C1390      C1394   1.451       .  S
C1391      N1398   1.157       .  T
C1392      N1399   1.157       .  T
C1393      N1397   1.157       .  T
C1394      N1400   1.157       .  T
C1395      N1404   1.157       .  T
C1396      N1402   1.158       .  T
N1403      C3097   1.158       .  T
C1405      C1406   1.410       .  A
C1405      C1410   1.412       .  A
C1405      C1423   1.450       .  S
C1406      C1407   1.415       .  A
C1406      C1411   1.513       .  S
C1407      C1408   1.421       .  A
C1407      C1412   1.450       .  S
C1408      C1409   1.418       .  A
C1408      C1424   1.447       .  S
C1409      C1410   1.421       .  A
C1410      C1413   1.450       .  S
C1411      C1414   1.415       .  A
C1411      C1418   1.415       .  A
C1412      N1429   1.157       .  T
C1413      N3143   1.157       .  T
C1414      C1415   1.416       .  A
C1414      C1419   1.450       .  S
C1415      C1416   1.414       .  A
C1415      C1421   1.450       .  S
C1416      C1417   1.414       .  A
C1417      C1418   1.416       .  A
C1417      C1420   1.450       .  S
C1418      C1422   1.449       .  S
C1419      N1426   1.157       .  T
C1420      N1427   1.157       .  T
C1421      N1425   1.157       .  T
C1422      N1428   1.157       .  T
C1423      N1432   1.157       .  T
C1424      N1430   1.158       .  T
N1431      C3125   1.156       .  T
C1433      C1434   1.412       .  A
C1433      C1438   1.412       .  A
C1433      C1451   1.451       .  S
C1434      C1435   1.413       .  A
C1434      C1439   1.504       .  S
C1435      C1436   1.414       .  A
C1435      C1440   1.451       .  S
C1436      C1437   1.415       .  A
C1436      C1452   1.451       .  S
C1437      C1438   1.416       .  A
C1438      C1441   1.452       .  S
C1439      C1442   1.413       .  A
C1439      C1446   1.413       .  A
C1440      N1457   1.157       .  T
C1441      N1459   1.157       .  T
C1442      C1443   1.412       .  A
C1442      C1447   1.451       .  S
C1443      C1444   1.415       .  A
C1443      C1449   1.451       .  S
C1444      C1445   1.415       .  A
C1445      C1446   1.413       .  A
C1445      C1448   1.450       .  S
C1446      C1450   1.450       .  S
C1447      N1454   1.157       .  T
C1448      N1455   1.157       .  T
C1449      N1453   1.157       .  T
C1450      N1456   1.157       .  T
C1451      N1460   1.157       .  T
C1452      N1458   1.157       .  T
C1461      C1462   1.413       .  A
C1461      C1466   1.409       .  A
C1461      C1479   1.450       .  S
C1462      C1463   1.413       .  A
C1462      C1467   1.494       .  S
C1463      C1464   1.406       .  A
C1463      C1468   1.451       .  S
C1464      C1465   1.411       .  A
C1464      C1480   1.452       .  S
C1465      C1466   1.410       .  A
C1466      C1469   1.450       .  S
C1467      C1470   1.411       .  A
C1467      C1474   1.413       .  A
C1468      N1485   1.157       .  T
C1469      N1487   1.157       .  T
C1470      C1471   1.408       .  A
C1470      C1475   1.451       .  S
C1471      C1472   1.413       .  A
C1471      C1477   1.451       .  S
C1472      C1473   1.411       .  A
C1473      C1474   1.410       .  A
C1473      C1476   1.450       .  S
C1474      C1478   1.451       .  S
C1475      N1482   1.157       .  T
C1476      N1483   1.157       .  T
C1477      N1481   1.157       .  T
C1478      N1484   1.157       .  T
C1479      N1488   1.157       .  T
C1480      N1486   1.157       .  T
C1489      C1494   1.421       .  A
C1489      C3202   1.409       .  A
C1489      C1507   1.451       .  S
C1490      C1491   1.409       .  A
C1490      C3201   1.410   1_554  A
C1490      C1495   1.508   1_554  S
C1491      C1492   1.409       .  A
C1491      C1496   1.454       .  S
C1492      C1493   1.423       .  A
C1492      C1508   1.448       .  S
C1493      C3206   1.427   1_554  A
C1494      C3205   1.429       .  A
C1494      C1497   1.447       .  S
C1495      C1498   1.416       .  A
C1495      C1502   1.411   1_556  A
C1496      N1513   1.157       .  T
C1497      N1515   1.158       .  T
C1498      C1499   1.420       .  A
C1498      C3215   1.449       .  S
C1499      C1500   1.413   1_556  A
C1499      C3217   1.449       .  S
C1500      C1501   1.417       .  A
C1501      C1502   1.407       .  A
C1501      C1504   1.450       .  S
C1502      C1506   1.454       .  S
C1503      C3210   1.449       .  S
C1503      N1510   1.157       .  T
C1504      N1511   1.157       .  T
C1505      C3211   1.449       .  S
C1505      N1509   1.157   1_655  T
C1506      N1512   1.157       .  T
C1507      N1516   1.157       .  T
C1508      N1514   1.156       .  T
C1517      C1518   1.406       .  A
C1517      C1522   1.407       .  A
C1517      C1535   1.452       .  S
C1518      C1519   1.407       .  A
C1518      C1523   1.487       .  S
C1519      C1520   1.409       .  A
C1519      C1524   1.450       .  S
C1520      C1521   1.417       .  A
C1520      C1536   1.447       .  S
C1521      C1522   1.425       .  A
C1522      C1525   1.451       .  S
C1523      C1526   1.410       .  A
C1523      C1530   1.411       .  A
C1524      N1541   1.157       .  T
C1525      N1543   1.158       .  T
C1526      C1527   1.405       .  A
C1526      C1531   1.450       .  S
C1527      C1528   1.411       .  A
C1527      C1533   1.451       .  S
C1528      C1529   1.410       .  A
C1529      C1530   1.408       .  A
C1529      C1532   1.450       .  S
C1530      C1534   1.450       .  S
C1531      N1538   1.157       .  T
C1532      N1539   1.157       .  T
C1533      N1537   1.157       .  T
C1534      N1540   1.157       .  T
C1535      N1544   1.157       .  T
C1536      N1542   1.157       .  T
C1545      C1546   1.415       .  A
C1545      C1550   1.414       .  A
C1545      C1563   1.451       .  S
C1546      C1547   1.415       .  A
C1546      C1551   1.514       .  S
C1547      C1548   1.416       .  A
C1547      C1552   1.450       .  S
C1548      C1549   1.415       .  A
C1548      C1564   1.449       .  S
C1549      C1550   1.416       .  A
C1550      C1553   1.451       .  S
C1551      C1554   1.417       .  A
C1551      C1558   1.415       .  A
C1552      N1569   1.157       .  T
C1553      N1571   1.157       .  T
C1554      C1555   1.415       .  A
C1554      C1559   1.451       .  S
C1555      C1556   1.417       .  A
C1555      C1561   1.452       .  S
C1556      C1557   1.419       .  A
C1557      C1558   1.415       .  A
C1557      C1560   1.451       .  S
C1558      C1562   1.451       .  S
C1559      N1566   1.157       .  T
C1560      N1567   1.157       .  T
C1561      N1565   1.157       .  T
C1562      N1568   1.157       .  T
C1563      N1572   1.157       .  T
C1564      N1570   1.157       .  T
C1573      C1574   1.413       .  A
C1573      C1578   1.412       .  A
C1573      C1591   1.450       .  S
C1574      C1575   1.413       .  A
C1574      C1579   1.503       .  S
C1575      C1576   1.413       .  A
C1575      C1580   1.450       .  S
C1576      C1577   1.412       .  A
C1576      C1592   1.450       .  S
C1577      C1578   1.412       .  A
C1578      C1581   1.450       .  S
C1579      C1582   1.412       .  A
C1579      C1586   1.414       .  A
C1580      N1597   1.157       .  T
C1581      N1599   1.157       .  T
C1582      C1583   1.412       .  A
C1582      C1587   1.450       .  S
C1583      C1584   1.414       .  A
C1583      C1589   1.451       .  S
C1584      C1585   1.413       .  A
C1585      C1586   1.414       .  A
C1585      C1588   1.450       .  S
C1586      C1590   1.450       .  S
C1587      N1594   1.157       .  T
C1588      N1595   1.157       .  T
C1589      N1593   1.157       .  T
C1590      N1596   1.157       .  T
C1591      N1600   1.157       .  T
C1592      N1598   1.157       .  T
C1601      C1602   1.410       .  A
C1601      C1606   1.410       .  A
C1601      C1619   1.451       .  S
C1602      C1603   1.410       .  A
C1602      C1607   1.494       .  S
C1603      C1604   1.411       .  A
C1603      C1608   1.450       .  S
C1604      C1605   1.414       .  A
C1604      C1620   1.450       .  S
C1605      C1606   1.414       .  A
C1606      C1609   1.451       .  S
C1607      C1610   1.411       .  A
C1607      C1614   1.411       .  A
C1608      N1625   1.157       .  T
C1609      N1627   1.157       .  T
C1610      C1611   1.411       .  A
C1610      C1615   1.449       .  S
C1611      C1612   1.413       .  A
C1611      C1617   1.450       .  S
C1612      C1613   1.412       .  A
C1613      C1614   1.408       .  A
C1613      C1616   1.451       .  S
C1614      C1618   1.451       .  S
C1615      N1622   1.157       .  T
C1616      N1623   1.157       .  T
C1617      N1621   1.157       .  T
C1618      N1624   1.157       .  T
C1619      N1628   1.157       .  T
C1620      N1626   1.157       .  T
C1629      C1634   1.417       .  A
C1629      C3342   1.409       .  A
C1629      C1647   1.451       .  S
C1630      C1631   1.407   1_556  A
C1630      C3341   1.408       .  A
C1630      C1635   1.504       .  S
C1631      C1632   1.416       .  A
C1631      C1636   1.452       .  S
C1632      C1633   1.430       .  A
C1632      C1648   1.451       .  S
C1633      C3346   1.425   1_554  A
C1634      C3345   1.424       .  A
C1634      C1637   1.450       .  S
C1635      C1638   1.410       .  A
C1635      C3354   1.413       .  A
C1636      N1653   1.157       .  T
C1637      N1655   1.157       .  T
C1638      C1639   1.413       .  A
C1638      C1643   1.451   1_556  S
C1639      C1640   1.419       .  A
C1639      C1645   1.451       .  S
C1640      C3353   1.412       .  A
C1641      C1642   1.417       .  A
C1641      C3352   1.413       .  A
C1641      C1644   1.448       .  S
C1642      C3347   1.414       .  A
C1642      C1646   1.450       .  S
C1643      N1650   1.157       .  T
C1644      N1651   1.157       .  T
C1645      N1649   1.157       .  T
C1646      N1652   1.157       .  T
C1647      N1656   1.157       .  T
C1648      N1654   1.158       .  T
C1657      C1658   1.403       .  A
C1657      C1662   1.406       .  A
C1657      C1675   1.455       .  S
C1658      C1659   1.405       .  A
C1658      C1663   1.488       .  S
C1659      C1660   1.411       .  A
C1659      C1664   1.452       .  S
C1660      C1661   1.430       .  A
C1660      C1676   1.451       .  S
C1661      C1662   1.430       .  A
C1662      C1665   1.452       .  S
C1663      C1666   1.411       .  A
C1663      C1670   1.411       .  A
C1664      N1681   1.157       .  T
C1665      N3395   1.157       .  T
C1666      C1667   1.408       .  A
C1666      C1671   1.450       .  S
C1667      C1668   1.410       .  A
C1667      C1673   1.450       .  S
C1668      C1669   1.411       .  A
C1669      C1670   1.404       .  A
C1669      C1672   1.451       .  S
C1670      C1674   1.452       .  S
C1671      N1678   1.157       .  T
C1672      N1679   1.157       .  T
C1673      N1677   1.157       .  T
C1674      N1680   1.157       .  T
C1675      N1684   1.157       .  T
C1676      N1682   1.158       .  T
N1683      C3377   1.157       .  T
C1685      C1686   1.414       .  A
C1685      C1690   1.413       .  A
C1685      C1703   1.451       .  S
C1686      C1687   1.415       .  A
C1686      C1691   1.508       .  S
C1687      C1688   1.412       .  A
C1687      C1692   1.451       .  S
C1688      C1689   1.410       .  A
C1688      C1704   1.445       .  S
C1689      C1690   1.415       .  A
C1690      C1693   1.448       .  S
C1691      C1694   1.415       .  A
C1691      C1698   1.413       .  A
C1692      N1709   1.157       .  T
C1693      N1711   1.157       .  T
C1694      C1695   1.413       .  A
C1694      C1699   1.451       .  S
C1695      C1696   1.416       .  A
C1695      C1701   1.450       .  S
C1696      C1697   1.418       .  A
C1697      C1698   1.412       .  A
C1697      C1700   1.450       .  S
C1698      C1702   1.451       .  S
C1699      N1706   1.157       .  T
C1700      N1707   1.157       .  T
C1701      N1705   1.157       .  T
C1702      N1708   1.157       .  T
C1703      N1712   1.157       .  T
C1704      N1710   1.156       .  T
C1713      C1714   1.541       .  S
C1713      C1719   1.544   1_556  S
C1713      C1717   1.526       .  S
C1713      C3373   1.551       .  S
C1714      H1721   1.083       .  S
C1715      C1716   1.553       .  S
C1715      C1821   1.487       .  S
C1716      C1720   1.547       .  S
C1716      C1718   1.557       .  S
C1716      H1722   1.110       .  S
C1717      H1723   1.087       .  S
C1718      C3352   1.505       .  S
C1720      C3401   1.500       .  S
N1725      C1730   1.351       .  A
N1725      C1729   1.356       .  A
N1725      H1757   1.040       .  S
N1726      C1733   1.352       .  A
N1726      C1734   1.348       .  A
N1727      C1732   1.354       .  A
N1727      C1731   1.351       .  A
N1727      H1758   1.040       .  S
N1728      C1735   1.350       .  A
N1728      C1736   1.353       .  A
C1729      C1737   1.387       .  A
C1729      C1745   1.420       .  A
C1730      C1746   1.415       .  A
C1730      C1738   1.386       .  A
C1731      C1739   1.388       .  A
C1731      C1748   1.414       .  A
C1732      C1747   1.413       .  A
C1732      C1740   1.386       .  A
C1733      C1745   1.416       .  A
C1733      C1741   1.387       .  A
C1734      C1748   1.410       .  A
C1734      C1742   1.386       .  A
C1735      C1743   1.388       .  A
C1735      C1746   1.414       .  A
C1736      C1744   1.384       .  A
C1736      C1747   1.411       .  A
C1737      C1738   1.379       .  A
C1737      H1749   1.082       .  S
C1738      H1750   1.082       .  S
C1739      C1740   1.377       .  A
C1739      H1751   1.082       .  S
C1740      H1752   1.082       .  S
C1741      C1742   1.375       .  A
C1741      H1753   1.082       .  S
C1742      H1754   1.082       .  S
C1743      C1744   1.374       .  A
C1743      H1755   1.082       .  S
C1744      H1756   1.082       .  S
C1745      C3408   1.513       .  S
C1746      C3324   1.494       .  S
C1747      C3289   1.499       .  S
C1748      C3380   1.489       .  S
C1759      C1760   1.532       .  S
C1759      C1765   1.534       .  S
C1759      C1763   1.540       .  S
C1759      C3233   1.551       .  S
C1760      H1767   1.085       .  S
C1760      C1761   1.362       .  D
C1761      C1927   1.489       .  S
C1762      C1766   1.555       .  S
C1762      H1768   1.103       .  S
C1763      H1769   1.084       .  S
C1763      C1764   1.382       .  D
C1764      C3205   1.529       .  S
C1765      H1770   1.083       .  S
C1766      C3261   1.499       .  S
N1771      C1776   1.356       .  A
N1771      C1775   1.353       .  A
N1771      H1803   1.039       .  S
N1772      C1779   1.352       .  A
N1772      C1780   1.353       .  A
N1773      C1778   1.353       .  A
N1773      C1777   1.353       .  A
N1773      H1804   1.039       .  S
N1774      C1781   1.352       .  A
N1774      C1782   1.351       .  A
C1775      C1783   1.386       .  A
C1775      C1791   1.415       .  A
C1776      C1792   1.421       .  A
C1776      C1784   1.387       .  A
C1777      C1785   1.386       .  A
C1777      C1794   1.416       .  A
C1778      C1793   1.417       .  A
C1778      C1786   1.387       .  A
C1779      C1791   1.414       .  A
C1779      C1787   1.386       .  A
C1780      C1794   1.415       .  A
C1780      C1788   1.386       .  A
C1781      C1789   1.387       .  A
C1781      C1792   1.418       .  A
C1782      C1790   1.385       .  A
C1782      C1793   1.413       .  A
C1783      C1784   1.379       .  A
C1783      H1795   1.082       .  S
C1784      H1796   1.082       .  S
C1785      C1786   1.379       .  A
C1785      H1797   1.082       .  S
C1786      H1798   1.082       .  S
C1787      C1788   1.374       .  A
C1787      H1799   1.082       .  S
C1788      H1800   1.082       .  S
C1789      C1790   1.376       .  A
C1789      H1801   1.082       .  S
C1790      H1802   1.082       .  S
C1791      C3177   1.497       .  S
C1792      C3268   1.514       .  S
C1793      C3240   1.497       .  S
C1794      C3156   1.503       .  S
O1805     Ni1813   1.915       .  S
O1805      C1815   1.280       .  A
O1806      C1816   1.281       .  A
O1807      C1817   1.282       .  A
O1808     Ni1813   1.922       .  S
O1808      C1818   1.283       .  A
O1809     Ni1814   1.914       .  S
O1809      C1818   1.279       .  A
O1810      C1817   1.281       .  A
O1811      C1816   1.283       .  A
O1812     Ni1814   1.928       .  S
O1812      C1815   1.284       .  A
Ni1813    Ni1814   2.390       .  S
C1815      C3149   1.490       .  S
C1816      C3296   1.489       .  S
C1817      C3184   1.483       .  S
C1818      C3317   1.483       .  S
C1819      C1820   1.546       .  S
C1819      C1825   1.544       .  S
C1819      C1823   1.518       .  S
C1819      C3093   1.549       .  S
C1820      H1827   1.082       .  S
C1820      C1821   1.368       .  D
C1822      C1826   1.552       .  S
C1822      H1828   1.108       .  S
C1823      H1829   1.087       .  S
C1823      C1824   1.356       .  D
C1824      C3065   1.491       .  S
C1825      H1830   1.084       .  S
C1826      C3121   1.519       .  S
N1831      C1836   1.352       .  A
N1831      C1835   1.359       .  A
N1831      H1863   1.039       .  S
N1832      C1839   1.354       .  A
N1832      C1840   1.349       .  A
N1833      C1838   1.357       .  A
N1833      C1837   1.350       .  A
N1833      H1864   1.040       .  S
N1834      C1841   1.349       .  A
N1834      C1842   1.355       .  A
C1835      C1843   1.385       .  A
C1835      C1851   1.420       .  A
C1836      C1852   1.420       .  A
C1836      C1844   1.389       .  A
C1837      C1845   1.389       .  A
C1837      C1854   1.416       .  A
C1838      C1853   1.415       .  A
C1838      C1846   1.384       .  A
C1839      C1851   1.413       .  A
C1839      C1847   1.383       .  A
C1840      C1854   1.418       .  A
C1840      C1848   1.389       .  A
C1841      C1849   1.389       .  A
C1841      C1852   1.416       .  A
C1842      C1850   1.383       .  A
C1842      C1853   1.413       .  A
C1843      C1844   1.378       .  A
C1843      H1855   1.082       .  S
C1844      H1856   1.082       .  S
C1845      C1846   1.378       .  A
C1845      H1857   1.082       .  S
C1846      H1858   1.082       .  S
C1847      C1848   1.375       .  A
C1847      H1859   1.082       .  S
C1848      H1860   1.082       .  S
C1849      C1850   1.372       .  A
C1849      H1861   1.082       .  S
C1850      H1862   1.082       .  S
C1851      C3009   1.513       .  S
C1852      C3100   1.490       .  S
C1853      C3128   1.509       .  S
C1854      C3037   1.493       .  S
C1865      C1866   1.546       .  S
C1865      C1871   1.536   1_556  S
C1865      C1869   1.540       .  S
C1865      C2953   1.561       .  S
C1866      H1873   1.078       .  S
C1867      C1868   1.555       .  S
C1867      C2033   1.493       .  S
C1868      C1872   1.548       .  S
C1868      C1870   1.549       .  S
C1868      H1874   1.109       .  S
C1869      H1875   1.082       .  S
C1870      C2925   1.493       .  S
C1872      C2981   1.514       .  S
N1877      C1882   1.353       .  A
N1877      C1881   1.354       .  A
N1877      H1909   1.040       .  S
N1878      C1885   1.355       .  A
N1878      C1886   1.351       .  A
N1879      C1884   1.357       .  A
N1879      C1883   1.353       .  A
N1879      H1910   1.038       .  S
N1880      C1887   1.351       .  A
N1880      C1888   1.352       .  A
C1881      C1889   1.384       .  A
C1881      C1897   1.413       .  A
C1882      C1898   1.419       .  A
C1882      C1890   1.389       .  A
C1883      C1891   1.388       .  A
C1883      C1900   1.420       .  A
C1884      C1899   1.421       .  A
C1884      C1892   1.386       .  A
C1885      C1897   1.414       .  A
C1885      C1893   1.384       .  A
C1886      C1900   1.419       .  A
C1886      C1894   1.389       .  A
C1887      C1895   1.387       .  A
C1887      C1898   1.415       .  A
C1888      C1896   1.385       .  A
C1888      C1899   1.414       .  A
C1889      C1890   1.377       .  A
C1889      H1901   1.082       .  S
C1890      H1902   1.082       .  S
C1891      C1892   1.378       .  A
C1891      H1903   1.082       .  S
C1892      H1904   1.082       .  S
C1893      C1894   1.374       .  A
C1893      H1905   1.082       .  S
C1894      H1906   1.082       .  S
C1895      C1896   1.375       .  A
C1895      H1907   1.082       .  S
C1896      H1908   1.082       .  S
C1897      C2876   1.503       .  S
C1898      C2960   1.503       .  S
C1899      C2988   1.508       .  S
C1900      C2904   1.496       .  S
O1911     Ni1919   1.931       .  S
O1911      C1921   1.283       .  A
O1912      C1922   1.282       .  A
O1913      C1923   1.280       .  A
O1914     Ni1919   1.914       .  S
O1914      C1924   1.280       .  A
O1915     Ni1920   1.918       .  S
O1915      C1924   1.281       .  A
O1916      C1923   1.281       .  A
O1917      C1922   1.283       .  A
O1918     Ni1920   1.929       .  S
O1918      C1921   1.283       .  A
Ni1919    Ni1920   2.383       .  S
C1921      C3016   1.497       .  S
C1922      C2869   1.491       .  S
C1923      C3044   1.500       .  S
C1924      C2897   1.482       .  S
C1925      C1926   1.541       .  S
C1925      C1931   1.545   1_556  S
C1925      C1929   1.523       .  S
C1925      C2820   1.553       .  S
C1926      H1933   1.083       .  S
C1927      C1928   1.551       .  S
C1928      C1932   1.542       .  S
C1928      C1930   1.554       .  S
C1928      H1934   1.110       .  S
C1929      H1935   1.087       .  S
C1930      C2792   1.499       .  S
C1932      C2841   1.503       .  S
N1937      C1942   1.352       .  A
N1937      C1941   1.358       .  A
N1937      H1969   1.037       .  S
N1938      C1945   1.353       .  A
N1938      C1946   1.349       .  A
N1939      C1944   1.358       .  A
N1939      C1943   1.353       .  A
N1939      H1970   1.037       .  S
N1940      C1947   1.351       .  A
N1940      C1948   1.356       .  A
C1941      C1949   1.386       .  A
C1941      C1957   1.421       .  A
C1942      C1958   1.419       .  A
C1942      C1950   1.388       .  A
C1943      C1951   1.387       .  A
C1943      C1960   1.419       .  A
C1944      C1959   1.421       .  A
C1944      C1952   1.386       .  A
C1945      C1957   1.413       .  A
C1945      C1953   1.385       .  A
C1946      C1960   1.412       .  A
C1946      C1954   1.388       .  A
C1947      C1955   1.388       .  A
C1947      C1958   1.418       .  A
C1948      C1956   1.384       .  A
C1948      C1959   1.416       .  A
C1949      C1950   1.379       .  A
C1949      H1961   1.082       .  S
C1950      H1962   1.082       .  S
C1951      C1952   1.378       .  A
C1951      H1963   1.082       .  S
C1952      H1964   1.082       .  S
C1953      C1954   1.370       .  A
C1953      H1965   1.082       .  S
C1954      H1966   1.082       .  S
C1955      C1956   1.372       .  A
C1955      H1967   1.082       .  S
C1956      H1968   1.082       .  S
C1957      C2848   1.508       .  S
C1958      C2757   1.493       .  S
C1959      C2736   1.512       .  S
C1960      C2813   1.489       .  S
C1971      C1972   1.552       .  S
C1971      C1977   1.532       .  S
C1971      C1975   1.525       .  S
C1971      C2680   1.553       .  S
C1972      H1979   1.082       .  S
C1972      C1973   1.371       .  D
C1973      C2079   1.501       .  S
C1974      C1978   1.558       .  S
C1974      H1980   1.107       .  S
C1975      H1981   1.086       .  S
C1975      C1976   1.368       .  D
C1976      C2645   1.519       .  S
C1977      H1982   1.087       .  S
C1978      C2701   1.506       .  S
N1983      C1988   1.358       .  A
N1983      C1987   1.352       .  A
N1983      H2015   1.040       .  S
N1984      C1991   1.349       .  A
N1984      C1992   1.353       .  A
N1985      C1990   1.352       .  A
N1985      C1989   1.360       .  A
N1985      H2016   1.038       .  S
N1986      C1993   1.358       .  A
N1986      C1994   1.353       .  A
C1987      C1995   1.387       .  A
C1987      C2003   1.417       .  A
C1988      C2004   1.421       .  A
C1988      C1996   1.386       .  A
C1989      C1997   1.385       .  A
C1989      C2006   1.423       .  A
C1990      C2005   1.423       .  A
C1990      C1998   1.389       .  A
C1991      C2003   1.414       .  A
C1991      C1999   1.388       .  A
C1992      C2006   1.415       .  A
C1992      C2000   1.385       .  A
C1993      C2001   1.384       .  A
C1993      C2004   1.420       .  A
C1994      C2002   1.389       .  A
C1994      C2005   1.421       .  A
C1995      C1996   1.378       .  A
C1995      H2007   1.082       .  S
C1996      H2008   1.082       .  S
C1997      C1998   1.379       .  A
C1997      H2009   1.082       .  S
C1998      H2010   1.081       .  S
C1999      C2000   1.374       .  A
C1999      H2011   1.082       .  S
C2000      H2012   1.082       .  S
C2001      C2002   1.371       .  A
C2001      H2013   1.082       .  S
C2002      H2014   1.082       .  S
C2003      C2624   1.493       .  S
C2004      C2708   1.521       .  S
C2005      C2673   1.498       .  S
C2006      C2596   1.514       .  S
O2017     Ni2025   1.931       .  S
O2017      C2027   1.284       .  A
O2018      C2028   1.283       .  A
O2019      C2029   1.280       .  A
O2020     Ni2025   1.923       .  S
O2020      C2030   1.281       .  A
O2021     Ni2026   1.919       .  S
O2021      C2030   1.281       .  A
O2022      C2029   1.281       .  A
O2023      C2028   1.285       .  A
O2024     Ni2026   1.932       .  S
O2024      C2027   1.285       .  A
Ni2025    Ni2026   2.383       .  S
C2027      C2589   1.521       .  S
C2028      C2729   1.503       .  S
C2029      C2617   1.483       .  S
C2030      C2764   1.482       .  S
C2031      C2032   1.537       .  S
C2031      C2037   1.544       .  S
C2031      C2035   1.529       .  S
C2031      C2540   1.552       .  S
C2032      H2039   1.081       .  S
C2032      C2033   1.363       .  D
C2034      C2038   1.564       .  S
C2034      H2040   1.100       .  S
C2035      H2041   1.087       .  S
C2035      C2036   1.357       .  D
C2036      C2512   1.498       .  S
C2037      H2042   1.083       .  S
C2038      C2561   1.541       .  S
N2043      C2048   1.357       .  A
N2043      C2047   1.353       .  A
N2043      H2075   1.038       .  S
N2044      C2051   1.355       .  A
N2044      C2052   1.356       .  A
N2045      C2050   1.355       .  A
N2045      C2049   1.355       .  A
N2045      H2076   1.039       .  S
N2046      C2053   1.352       .  A
N2046      C2054   1.349       .  A
C2047      C2055   1.388       .  A
C2047      C2063   1.421       .  A
C2048      C2064   1.420       .  A
C2048      C2056   1.386       .  A
C2049      C2057   1.387       .  A
C2049      C2066   1.419       .  A
C2050      C2065   1.419       .  A
C2050      C2058   1.387       .  A
C2051      C2063   1.421       .  A
C2051      C2059   1.387       .  A
C2052      C2066   1.420       .  A
C2052      C2060   1.386       .  A
C2053      C2061   1.386       .  A
C2053      C2064   1.412       .  A
C2054      C2062   1.387       .  A
C2054      C2065   1.412       .  A
C2055      C2056   1.378       .  A
C2055      H2067   1.082       .  S
C2056      H2068   1.082       .  S
C2057      C2058   1.375       .  A
C2057      H2069   1.082       .  S
C2058      H2070   1.082       .  S
C2059      C2060   1.375       .  A
C2059      H2071   1.082       .  S
C2060      H2072   1.082       .  S
C2061      C2062   1.371       .  A
C2061      H2073   1.082       .  S
C2062      H2074   1.083       .  S
C2063      C2484   1.502       .  S
C2064      C2568   1.503       .  S
C2065      C2533   1.496       .  S
C2066      C2456   1.507       .  S
C2077      C2078   1.551       .  S
C2077      C2083   1.539       .  S
C2077      C2081   1.537       .  S
C2077      C2393   1.568       .  S
C2078      H2085   1.085       .  S
C2079      C2080   1.554       .  S
C2080      C2084   1.547       .  S
C2080      C2082   1.551       .  S
C2080      H2086   1.107       .  S
C2081      H2087   1.080       .  S
C2082      C2372   1.493       .  S
C2084      C2428   1.520       .  S
N2089      C2094   1.353       .  A
N2089      C2093   1.355       .  A
N2089      H2121   1.039       .  S
N2090      C2097   1.351       .  A
N2090      C2098   1.351       .  A
N2091      C2096   1.355       .  A
N2091      C2095   1.356       .  A
N2091      H2122   1.038       .  S
N2092      C2099   1.354       .  A
N2092      C2100   1.353       .  A
C2093      C2101   1.386       .  A
C2093      C2109   1.418       .  A
C2094      C2110   1.417       .  A
C2094      C2102   1.387       .  A
C2095      C2103   1.387       .  A
C2095      C2112   1.421       .  A
C2096      C2111   1.421       .  A
C2096      C2104   1.387       .  A
C2097      C2109   1.414       .  A
C2097      C2105   1.386       .  A
C2098      C2112   1.414       .  A
C2098      C2106   1.386       .  A
C2099      C2107   1.386       .  A
C2099      C2110   1.416       .  A
C2100      C2108   1.387       .  A
C2100      C2111   1.417       .  A
C2101      C2102   1.375       .  A
C2101      H2113   1.082       .  S
C2102      H2114   1.081       .  S
C2103      C2104   1.379       .  A
C2103      H2115   1.082       .  S
C2104      H2116   1.082       .  S
C2105      C2106   1.373       .  A
C2105      H2117   1.082       .  S
C2106      H2118   1.082       .  S
C2107      C2108   1.374       .  A
C2107      H2119   1.082       .  S
C2108      H2120   1.082       .  S
C2109      C2400   1.504       .  S
C2110      C2309   1.501       .  S
C2111      C2344   1.502       .  S
C2112      C2421   1.503       .  S
O2123      C2133   1.281       .  A
O2124     Ni2131   1.920       .  S
O2124      C2134   1.282       .  A
O2125     Ni2131   1.927       .  S
O2125      C2135   1.281       .  A
O2126      C2136   1.283       .  A
O2127      C2136   1.282       .  A
O2128     Ni2132   1.922       .  S
O2128      C2135   1.282       .  A
O2129     Ni2132   1.932       .  S
O2129      C2134   1.285       .  A
O2130      C2133   1.286       .  A
Ni2131    Ni2132   2.386       .  S
C2133      C2316   1.502       .  S
C2134      C2449   1.501       .  S
C2135      C2337   1.485       .  S
C2136      C2477   1.490       .  S
O2137     Ni2145   1.902       .  S
O2138     Ni2145   1.920       .  S
O2139     Ni2145   1.929       .  S
O2140     Ni2145   1.919       .  S
O2141     Ni2146   1.899       .  S
O2141      C2150   1.277       .  A
O2142     Ni2146   1.915       .  S
O2142      C2149   1.281       .  A
O2143     Ni2146   1.932       .  S
O2143      C2148   1.285       .  A
O2144     Ni2146   1.929       .  S
O2144      C2147   1.283       .  A
C2147      C2281   1.484       .  S
C2148      C2652   1.505   1_565  S
C2149      C2932   1.506       .  S
C2150      C2253   1.474   1_565  S
O2151     Ni2159   1.921       .  S
O2151      C2161   1.283       .  A
O2152     Ni2159   1.921       .  S
O2152      C2162   1.282       .  A
O2153     Ni2159   1.913       .  S
O2153      C2163   1.280       .  A
O2154     Ni2159   1.904       .  S
O2154      C2164   1.278       .  A
O2155     Ni2160   1.913       .  S
O2156     Ni2160   1.930       .  S
O2157     Ni2160   1.921       .  S
O2158     Ni2160   1.912       .  S
C2161      C2225   1.486   1_455  S
C2162      C2365   1.504       .  S
C2163      C3212   1.488   1_455  S
C2164      C2260   1.490       .  S
O2165     Ni2173   1.900       .  S
O2166     Ni2173   1.911       .  S
O2167     Ni2173   1.925       .  S
O2168     Ni2173   1.926       .  S
O2169     Ni2174   1.906       .  S
O2169      C2178   1.279       .  A
O2170     Ni2174   1.922       .  S
O2170      C2177   1.282       .  A
O2171     Ni2174   1.932       .  S
O2171      C2176   1.285       .  A
O2172     Ni2174   1.927       .  S
O2172      C2175   1.283       .  A
C2175      C2197   1.477   1_455  S
C2176      C2505   1.504       .  S
C2177      C3345   1.519   1_455  S
C2178      C2288   1.485       .  S
O2179     Ni2187   1.899       .  S
O2179      C2189   1.278       .  A
O2180     Ni2187   1.914       .  S
O2180      C2190   1.280   1_565  A
O2181     Ni2187   1.930       .  S
O2181      C2191   1.284       .  A
O2182     Ni2187   1.922       .  S
O2182      C2192   1.283       .  A
O2183     Ni2188   1.912       .  S
O2184     Ni2188   1.914       .  S
O2185     Ni2188   1.931       .  S
O2186     Ni2188   1.927       .  S
C2189      C2204   1.490       .  S
C2190      C2785   1.520       .  S
C2191      C3072   1.502       .  S
C2192      C2232   1.487   1_565  S
C2193      C2198   1.411       .  A
C2193      C2211   1.450       .  S
C2194      C2195   1.408       .  A
C2194      C2199   1.490       .  S
C2195      C2196   1.406       .  A
C2195      C2200   1.452       .  S
C2196      C2197   1.413       .  A
C2196      C2212   1.450       .  S
C2198      C2201   1.451   1_655  S
C2199      C2202   1.410       .  A
C2199      C2206   1.406       .  A
C2200      N2217   1.157       .  T
C2201      N2219   1.157       .  T
C2202      C2203   1.411       .  A
C2202      C2207   1.451       .  S
C2203      C2204   1.415       .  A
C2203      C2209   1.448       .  S
C2204      C2205   1.420       .  A
C2205      C2206   1.406       .  A
C2205      C2208   1.453       .  S
C2206      C2210   1.452       .  S
C2207      N2214   1.157       .  T
C2208      N2215   1.157       .  T
C2209      N2213   1.157       .  T
C2210      N2216   1.157       .  T
C2211      N2220   1.157       .  T
C2212      N2218   1.157       .  T
C2221      C2222   1.409       .  A
C2221      C2226   1.409       .  A
C2221      C2239   1.452       .  S
C2222      C2227   1.490       .  S
C2223      C2224   1.409       .  A
C2223      C2228   1.451       .  S
C2224      C2240   1.452       .  S
C2225      C2226   1.414       .  A
C2226      C2229   1.447   1_655  S
C2227      C2230   1.408       .  A
C2228      N2245   1.157       .  T
C2229      N2247   1.156       .  T
C2230      C2231   1.410       .  A
C2230      C2235   1.450       .  S
C2231      C2232   1.417       .  A
C2231      C2237   1.451       .  S
C2233      C2234   1.408       .  A
C2233      C2236   1.448   1_545  S
C2234      C2238   1.451       .  S
C2235      N2242   1.157       .  T
C2236      N2243   1.156       .  T
C2237      N2241   1.157       .  T
C2238      N2244   1.157       .  T
C2239      N2248   1.157       .  T
C2240      N2246   1.157       .  T
C2249      C2250   1.406       .  A
C2249      C2254   1.404       .  A
C2249      C2267   1.452       .  S
C2250      C2255   1.483       .  S
C2251      C2252   1.408       .  A
C2251      C2256   1.450       .  S
C2252      C2268   1.451   1_545  S
C2253      C2254   1.416       .  A
C2254      C2257   1.452       .  S
C2255      C2262   1.405       .  A
C2256      N2273   1.157       .  T
C2257      N2275   1.157       .  T
C2258      C2259   1.407       .  A
C2258      C2263   1.452       .  S
C2259      C2265   1.452       .  S
C2260      C2261   1.421       .  A
C2261      C2262   1.405       .  A
C2261      C2264   1.451       .  S
C2262      C2266   1.453       .  S
C2263      N2270   1.157       .  T
C2264      N2271   1.157       .  T
C2265      N2269   1.157       .  T
C2266      N2272   1.157       .  T
C2267      N2276   1.157       .  T
C2268      N2274   1.157       .  T
C2277      C2282   1.408       .  A
C2277      C2295   1.451       .  S
C2278      C2279   1.412       .  A
C2278      C2283   1.494       .  S
C2279      C2280   1.413       .  A
C2279      C2284   1.450       .  S
C2280      C2281   1.414       .  A
C2280      C2296   1.450       .  S
C2282      C2285   1.452       .  S
C2283      C2290   1.412       .  A
C2284      N2301   1.157       .  T
C2285      N2303   1.157       .  T
C2286      C2287   1.409       .  A
C2286      C2291   1.451       .  S
C2287      C2293   1.452       .  S
C2288      C2289   1.413       .  A
C2289      C2290   1.411       .  A
C2289      C2292   1.450       .  S
C2290      C2294   1.451       .  S
C2291      N2298   1.157       .  T
C2292      N2299   1.157       .  T
C2293      N2297   1.157       .  T
C2294      N2300   1.157       .  T
C2295      N2304   1.157       .  T
C2296      N2302   1.157       .  T
C2305      C2306   1.415       .  A
C2305      C2310   1.413       .  A
C2305      C2323   1.450       .  S
C2306      C2307   1.417       .  A
C2306      C2311   1.509       .  S
C2307      C2308   1.413       .  A
C2307      C2312   1.450       .  S
C2308      C2309   1.411       .  A
C2308      C2324   1.451       .  S
C2309      C2310   1.413       .  A
C2310      C2313   1.451       .  S
C2311      C2314   1.415       .  A
C2311      C2318   1.412       .  A
C2312      N2329   1.157       .  T
C2313      N2331   1.157       .  T
C2314      C2315   1.417       .  A
C2314      C2319   1.451       .  S
C2315      C2316   1.418       .  A
C2315      C2321   1.451       .  S
C2316      C2317   1.419       .  A
C2317      C2318   1.412       .  A
C2317      C2320   1.450       .  S
C2318      C2322   1.451       .  S
C2319      N2326   1.157       .  T
C2320      N2327   1.158       .  T
C2321      N2325   1.158       .  T
C2322      N2328   1.157       .  T
C2323      N2332   1.157       .  T
C2324      N2330   1.157       .  T
C2333      C2334   1.411       .  A
C2333      C2338   1.413       .  A
C2333      C2351   1.450       .  S
C2334      C2335   1.413       .  A
C2334      C2339   1.502       .  S
C2335      C2336   1.413       .  A
C2335      C2340   1.450       .  S
C2336      C2337   1.410       .  A
C2336      C2352   1.448       .  S
C2337      C2338   1.411       .  A
C2338      C2341   1.449       .  S
C2339      C2342   1.411       .  A
C2339      C2346   1.413       .  A
C2340      N2357   1.157       .  T
C2341      N2359   1.157       .  T
C2342      C2343   1.414       .  A
C2342      C2347   1.450       .  S
C2343      C2344   1.414       .  A
C2343      C2349   1.450       .  S
C2344      C2345   1.412       .  A
C2345      C2346   1.412       .  A
C2345      C2348   1.450       .  S
C2346      C2350   1.450       .  S
C2347      N2354   1.157       .  T
C2348      N2355   1.157       .  T
C2349      N2353   1.157       .  T
C2350      N2356   1.157       .  T
C2351      N2360   1.157       .  T
C2352      N2358   1.157       .  T
C2361      C2362   1.408       .  A
C2361      C2366   1.413       .  A
C2361      C2379   1.452       .  S
C2362      C2367   1.503       .  S
C2363      C2364   1.417       .  A
C2363      C2368   1.451       .  S
C2364      C2380   1.451       .  S
C2365      C2366   1.425       .  A
C2366      C2369   1.451       .  S
C2367      C2374   1.409       .  A
C2368      N2385   1.157       .  T
C2369      N2387   1.158       .  T
C2370      C2371   1.417       .  A
C2370      C2375   1.450       .  S
C2371      C2377   1.448   1_554  S
C2372      C2373   1.418       .  A
C2373      C2374   1.410       .  A
C2373      C2376   1.452       .  S
C2374      C2378   1.451       .  S
C2375      N2382   1.157       .  T
C2376      N2383   1.157       .  T
C2377      N2381   1.157       .  T
C2378      N2384   1.157       .  T
C2379      N2388   1.157       .  T
C2380      N2386   1.157       .  T
C2389      C2390   1.408       .  A
C2389      C2394   1.414       .  A
C2389      C2407   1.454       .  S
C2390      C2391   1.407       .  A
C2390      C2395   1.509       .  S
C2391      C2392   1.416       .  A
C2391      C2396   1.454       .  S
C2392      C2393   1.430       .  A
C2392      C2408   1.442       .  S
C2393      C2394   1.435       .  A
C2394      C2397   1.449       .  S
C2395      C2398   1.417       .  A
C2395      C2402   1.415       .  A
C2396      N2413   1.157       .  T
C2397      N2415   1.158       .  T
C2398      C2399   1.410       .  A
C2398      C2403   1.452       .  S
C2399      C2400   1.413       .  A
C2399      C2405   1.451       .  S
C2400      C2401   1.415       .  A
C2401      C2402   1.412       .  A
C2401      C2404   1.451       .  S
C2402      C2406   1.451       .  S
C2403      N2410   1.157       .  T
C2404      N2411   1.157       .  T
C2405      N2409   1.157       .  T
C2406      N2412   1.157       .  T
C2407      N2416   1.157       .  T
C2408      N2414   1.154       .  T
C2417      C2418   1.412       .  A
C2417      C2422   1.411       .  A
C2417      C2435   1.451       .  S
C2418      C2419   1.413       .  A
C2418      C2423   1.503       .  S
C2419      C2420   1.414       .  A
C2419      C2424   1.450       .  S
C2420      C2421   1.413       .  A
C2420      C2436   1.450       .  S
C2421      C2422   1.414       .  A
C2422      C2425   1.450       .  S
C2423      C2426   1.410       .  A
C2423      C2430   1.406       .  A
C2424      N2441   1.157       .  T
C2425      N2443   1.157       .  T
C2426      C2427   1.420       .  A
C2426      C2431   1.451       .  S
C2427      C2428   1.425       .  A
C2427      C2433   1.448       .  S
C2428      C2429   1.424       .  A
C2429      C2430   1.409       .  A
C2429      C2432   1.449       .  S
C2430      C2434   1.453       .  S
C2431      N2438   1.157       .  T
C2432      N2439   1.156       .  T
C2433      N2437   1.158       .  T
C2434      N2440   1.157       .  T
C2435      N2444   1.157       .  T
C2436      N2442   1.157       .  T
C2445      C2446   1.415       .  A
C2445      C2450   1.415       .  A
C2445      C2463   1.451       .  S
C2446      C2447   1.413       .  A
C2446      C2451   1.512       .  S
C2447      C2448   1.415       .  A
C2447      C2452   1.451       .  S
C2448      C2449   1.419       .  A
C2448      C2464   1.452       .  S
C2449      C2450   1.416       .  A
C2450      C2453   1.450       .  S
C2451      C2454   1.416       .  A
C2451      C2458   1.415       .  A
C2452      N2469   1.157       .  T
C2453      N2471   1.157       .  T
C2454      C2455   1.416       .  A
C2454      C2459   1.450       .  S
C2455      C2456   1.414       .  A
C2455      C2461   1.450       .  S
C2456      C2457   1.414       .  A
C2457      C2458   1.414       .  A
C2457      C2460   1.450       .  S
C2458      C2462   1.450       .  S
C2459      N2466   1.157       .  T
C2460      N2467   1.157       .  T
C2461      N2465   1.157       .  T
C2462      N2468   1.157       .  T
C2463      N2472   1.157       .  T
C2464      N2470   1.158       .  T
C2473      C2474   1.410       .  A
C2473      C2478   1.410       .  A
C2473      C2491   1.451       .  S
C2474      C2475   1.413       .  A
C2474      C2479   1.502       .  S
C2475      C2476   1.416       .  A
C2475      C2480   1.449       .  S
C2476      C2477   1.414       .  A
C2476      C2492   1.450       .  S
C2477      C2478   1.411       .  A
C2478      C2481   1.446       .  S
C2479      C2482   1.413       .  A
C2479      C2486   1.411       .  A
C2480      N2497   1.157       .  T
C2481      N2499   1.156       .  T
C2482      C2483   1.414       .  A
C2482      C2487   1.450       .  S
C2483      C2484   1.414       .  A
C2483      C2489   1.450       .  S
C2484      C2485   1.413       .  A
C2485      C2486   1.412       .  A
C2485      C2488   1.450       .  S
C2486      C2490   1.450       .  S
C2487      N2494   1.157       .  T
C2488      N2495   1.157       .  T
C2489      N2493   1.157       .  T
C2490      N2496   1.157       .  T
C2491      N2500   1.157       .  T
C2501      C2506   1.412       .  A
C2501      C2519   1.452       .  S
C2502      C2503   1.413       .  A
C2502      C2507   1.504       .  S
C2503      C2504   1.417       .  A
C2503      C2508   1.450       .  S
C2504      C2505   1.416       .  A
C2504      C2520   1.449       .  S
C2506      C2509   1.452       .  S
C2507      C2510   1.411       .  A
C2508      N2525   1.157       .  T
C2509      N2527   1.158       .  T
C2510      C2511   1.413       .  A
C2510      C2515   1.450       .  S
C2511      C2512   1.416       .  A
C2511      C2517   1.451       .  S
C2513      C2514   1.415       .  A
C2513      C2516   1.447       .  S
C2514      C2518   1.451       .  S
C2515      N2522   1.157       .  T
C2516      N2523   1.157       .  T
C2517      N2521   1.157       .  T
C2518      N2524   1.157       .  T
C2519      N2528   1.157       .  T
C2520      N2526   1.157       .  T
C2529      C2530   1.411       .  A
C2529      C2534   1.407       .  A
C2529      C2547   1.451       .  S
C2530      C2531   1.412       .  A
C2530      C2535   1.496       .  S
C2531      C2532   1.412       .  A
C2531      C2536   1.450       .  S
C2532      C2533   1.412       .  A
C2532      C2548   1.450       .  S
C2533      C2534   1.414       .  A
C2534      C2537   1.452       .  S
C2535      C2538   1.409       .  A
C2535      C2542   1.406       .  A
C2536      N2553   1.157       .  T
C2537      N2555   1.157       .  T
C2538      C2539   1.417       .  A
C2538      C2543   1.451       .  S
C2539      C2540   1.424       .  A
C2539      C2545   1.448       .  S
C2540      C2541   1.424       .  A
C2541      C2542   1.405       .  A
C2541      C2544   1.451       .  S
C2542      C2546   1.452       .  S
C2543      N2550   1.157       .  T
C2544      N2551   1.158       .  T
C2545      N2549   1.158       .  T
C2546      N2552   1.157       .  T
C2547      N2556   1.157       .  T
C2548      N2554   1.157       .  T
C2557      C2558   1.400       .  A
C2557      C2562   1.411       .  A
C2557      C2575   1.456       .  S
C2558      C2559   1.406       .  A
C2558      C2563   1.505       .  S
C2559      C2560   1.423       .  A
C2559      C2564   1.452       .  S
C2560      C2561   1.434       .  A
C2560      C2576   1.446       .  S
C2561      C2562   1.435       .  A
C2562      C2565   1.448       .  S
C2563      C2566   1.412       .  A
C2563      C2570   1.413       .  A
C2564      N2581   1.157       .  T
C2566      C2567   1.413       .  A
C2566      C2571   1.450       .  S
C2567      C2568   1.414       .  A
C2567      C2573   1.450       .  S
C2568      C2569   1.412       .  A
C2569      C2570   1.414       .  A
C2569      C2572   1.449       .  S
C2570      C2574   1.450       .  S
C2571      N2578   1.157       .  T
C2572      N2579   1.157       .  T
C2573      N2577   1.157       .  T
C2574      N2580   1.157       .  T
C2575      N2584   1.157       .  T
C2576      N2582   1.158       .  T
C2585      C2586   1.413       .  A
C2585      C2590   1.419       .  A
C2585      C2603   1.452       .  S
C2586      C2587   1.412       .  A
C2586      C2591   1.518       .  S
C2587      C2588   1.418       .  A
C2587      C2592   1.451       .  S
C2588      C2589   1.426       .  A
C2588      C2604   1.451       .  S
C2589      C2590   1.426       .  A
C2590      C2593   1.451       .  S
C2591      C2594   1.416       .  A
C2591      C2598   1.417       .  A
C2592      N2609   1.157       .  T
C2593      N2611   1.158       .  T
C2594      C2595   1.417       .  A
C2594      C2599   1.450       .  S
C2595      C2596   1.416       .  A
C2595      C2601   1.450       .  S
C2596      C2597   1.414       .  A
C2597      C2598   1.418       .  A
C2597      C2600   1.449       .  S
C2598      C2602   1.450       .  S
C2599      N2606   1.157       .  T
C2600      N2607   1.157       .  T
C2601      N2605   1.157       .  T
C2602      N2608   1.157       .  T
C2603      N2612   1.157       .  T
C2604      N2610   1.158       .  T
C2613      C2614   1.409       .  A
C2613      C2618   1.408       .  A
C2613      C2631   1.452       .  S
C2614      C2615   1.410       .  A
C2614      C2619   1.493       .  S
C2615      C2616   1.411       .  A
C2615      C2620   1.450       .  S
C2616      C2617   1.414       .  A
C2616      C2632   1.451       .  S
C2617      C2618   1.413       .  A
C2618      C2621   1.448       .  S
C2619      C2622   1.410       .  A
C2619      C2626   1.411       .  A
C2620      N2637   1.157       .  T
C2622      C2623   1.408       .  A
C2622      C2627   1.450       .  S
C2623      C2624   1.412       .  A
C2623      C2629   1.451       .  S
C2624      C2625   1.412       .  A
C2625      C2626   1.410       .  A
C2625      C2628   1.450       .  S
C2626      C2630   1.450       .  S
C2627      N2634   1.157       .  T
C2628      N2635   1.157       .  T
C2629      N2633   1.157       .  T
C2630      N2636   1.157       .  T
C2631      N2640   1.157       .  T
C2632      N2638   1.157       .  T
C2641      C2642   1.411       .  A
C2641      C2646   1.414       .  A
C2641      C2659   1.451       .  S
C2642      C2647   1.514       .  S
C2643      C2644   1.419       .  A
C2643      C2648   1.449       .  S
C2644      C2660   1.446       .  S
C2645      C2646   1.422       .  A
C2646      C2649   1.452       .  S
C2647      C2654   1.416       .  A
C2648      N2665   1.157       .  T
C2649      N2667   1.157       .  T
C2650      C2651   1.415       .  A
C2650      C2655   1.452       .  S
C2651      C2657   1.451       .  S
C2652      C2653   1.415       .  A
C2653      C2654   1.419       .  A
C2653      C2656   1.450       .  S
C2654      C2658   1.450       .  S
C2655      N2662   1.157       .  T
C2656      N2663   1.157       .  T
C2657      N2661   1.157       .  T
C2658      N2664   1.157       .  T
C2659      N2668   1.157       .  T
C2660      N2666   1.158       .  T
C2669      C2670   1.414       .  A
C2669      C2674   1.412       .  A
C2669      C2687   1.450       .  S
C2670      C2671   1.414       .  A
C2670      C2675   1.503       .  S
C2671      C2672   1.409       .  A
C2671      C2676   1.451       .  S
C2672      C2673   1.413       .  A
C2672      C2688   1.451       .  S
C2673      C2674   1.412       .  A
C2674      C2677   1.450       .  S
C2675      C2678   1.409       .  A
C2675      C2682   1.413       .  A
C2676      N2693   1.157       .  T
C2677      N2695   1.157       .  T
C2678      C2679   1.406       .  A
C2678      C2683   1.453       .  S
C2679      C2680   1.427       .  A
C2679      C2685   1.454       .  S
C2680      C2681   1.423       .  A
C2681      C2682   1.418       .  A
C2681      C2684   1.449       .  S
C2682      C2686   1.451       .  S
C2683      N2690   1.157       .  T
C2684      N2691   1.158       .  T
C2685      N2689   1.157       .  T
C2686      N2692   1.157       .  T
C2687      N2696   1.157       .  T
C2688      N2694   1.157       .  T
C2697      C2698   1.417       .  A
C2697      C2702   1.415       .  A
C2697      C2715   1.451       .  S
C2698      C2699   1.417       .  A
C2698      C2703   1.520       .  S
C2699      C2700   1.418       .  A
C2699      C2704   1.451       .  S
C2700      C2701   1.418       .  A
C2700      C2716   1.450       .  S
C2701      C2702   1.413       .  A
C2702      C2705   1.449       .  S
C2703      C2706   1.416       .  A
C2703      C2710   1.417       .  A
C2704      N2721   1.157       .  T
C2705      N2723   1.158       .  T
C2706      C2707   1.418       .  A
C2706      C2711   1.450       .  S
C2707      C2708   1.419       .  A
C2707      C2713   1.450       .  S
C2708      C2709   1.418       .  A
C2709      C2710   1.417       .  A
C2709      C2712   1.451       .  S
C2710      C2714   1.451       .  S
C2711      N2718   1.157       .  T
C2712      N2719   1.157       .  T
C2713      N2717   1.157       .  T
C2714      N2720   1.157       .  T
C2715      N2724   1.157       .  T
C2716      N2722   1.157       .  T
C2725      C2726   1.416       .  A
C2725      C2730   1.418       .  A
C2725      C2743   1.450       .  S
C2726      C2727   1.415       .  A
C2726      C2731   1.517       .  S
C2727      C2728   1.419       .  A
C2727      C2732   1.450       .  S
C2728      C2729   1.417       .  A
C2728      C2744   1.450       .  S
C2729      C2730   1.416       .  A
C2730      C2733   1.450       .  S
C2731      C2734   1.416       .  A
C2731      C2738   1.417       .  A
C2732      N2749   1.157       .  T
C2733      N2751   1.157       .  T
C2734      C2735   1.417       .  A
C2734      C2739   1.450       .  S
C2735      C2736   1.414       .  A
C2735      C2741   1.450       .  S
C2736      C2737   1.414       .  A
C2737      C2738   1.418       .  A
C2737      C2740   1.450       .  S
C2738      C2742   1.449       .  S
C2739      N2746   1.157       .  T
C2740      N2747   1.157       .  T
C2741      N2745   1.157       .  T
C2742      N2748   1.157       .  T
C2743      N2752   1.157       .  T
C2744      N2750   1.157       .  T
C2753      C2754   1.412       .  A
C2753      C2758   1.410       .  A
C2753      C2771   1.450       .  S
C2754      C2755   1.411       .  A
C2754      C2759   1.495       .  S
C2755      C2756   1.410       .  A
C2755      C2760   1.450       .  S
C2756      C2757   1.411       .  A
C2756      C2772   1.450       .  S
C2757      C2758   1.411       .  A
C2758      C2761   1.451       .  S
C2759      C2762   1.410       .  A
C2759      C2766   1.411       .  A
C2760      N2777   1.157       .  T
C2761      N2779   1.157       .  T
C2762      C2763   1.410       .  A
C2762      C2767   1.451       .  S
C2763      C2764   1.412       .  A
C2763      C2769   1.449       .  S
C2764      C2765   1.412       .  A
C2765      C2766   1.412       .  A
C2765      C2768   1.450       .  S
C2766      C2770   1.450       .  S
C2767      N2774   1.157       .  T
C2769      N2773   1.157       .  T
C2770      N2776   1.157       .  T
C2771      N2780   1.157       .  T
C2772      N2778   1.157       .  T
C2781      C2786   1.417       .  A
C2781      C2799   1.452       .  S
C2782      C2783   1.408       .  A
C2782      C2787   1.506       .  S
C2783      C2784   1.417       .  A
C2783      C2788   1.452       .  S
C2784      C2785   1.430       .  A
C2784      C2800   1.452       .  S
C2786      C2789   1.451       .  S
C2787      C2794   1.416       .  A
C2788      N2805   1.157       .  T
C2789      N2807   1.158       .  T
C2790      C2791   1.412       .  A
C2790      C2795   1.451       .  S
C2791      C2797   1.450       .  S
C2792      C2793   1.413       .  A
C2793      C2794   1.419       .  A
C2793      C2796   1.450       .  S
C2794      C2798   1.449       .  S
C2795      N2802   1.157       .  T
C2796      N2803   1.158       .  T
C2797      N2801   1.156       .  T
C2798      N2804   1.157       .  T
C2799      N2808   1.157       .  T
C2800      N2806   1.158       .  T
C2809      C2810   1.411       .  A
C2809      C2814   1.409       .  A
C2809      C2827   1.450       .  S
C2810      C2811   1.413       .  A
C2810      C2815   1.494       .  S
C2811      C2812   1.407       .  A
C2811      C2816   1.451       .  S
C2812      C2813   1.409       .  A
C2812      C2828   1.451       .  S
C2813      C2814   1.411       .  A
C2814      C2817   1.451       .  S
C2815      C2818   1.404       .  A
C2815      C2822   1.407       .  A
C2816      N2833   1.157       .  T
C2817      N2835   1.157       .  T
C2818      C2819   1.406       .  A
C2818      C2823   1.454       .  S
C2819      C2820   1.429       .  A
C2819      C2825   1.451       .  S
C2820      C2821   1.428       .  A
C2821      C2822   1.415       .  A
C2821      C2824   1.451       .  S
C2822      C2826   1.451       .  S
C2823      N2830   1.157       .  T
C2824      N2831   1.158       .  T
C2825      N2829   1.157       .  T
C2826      N2832   1.157       .  T
C2827      N2836   1.157       .  T
C2828      N2834   1.157       .  T
C2837      C2838   1.413       .  A
C2837      C2842   1.415       .  A
C2837      C2855   1.450       .  S
C2838      C2839   1.412       .  A
C2838      C2843   1.506       .  S
C2839      C2840   1.411       .  A
C2839      C2844   1.450       .  S
C2840      C2841   1.417       .  A
C2840      C2856   1.452       .  S
C2841      C2842   1.415       .  A
C2842      C2845   1.448       .  S
C2843      C2846   1.412       .  A
C2843      C2850   1.415       .  A
C2844      N2861   1.157       .  T
C2845      N2863   1.157       .  T
C2846      C2847   1.415       .  A
C2846      C2851   1.450       .  S
C2847      C2848   1.417       .  A
C2847      C2853   1.450       .  S
C2848      C2849   1.413       .  A
C2849      C2850   1.412       .  A
C2849      C2852   1.450       .  S
C2850      C2854   1.451       .  S
C2851      N2858   1.157       .  T
C2852      N2859   1.157       .  T
C2853      N2857   1.157       .  T
C2854      N2860   1.157       .  T
C2855      N2864   1.157       .  T
C2856      N2862   1.157       .  T
C2865      C2866   1.412       .  A
C2865      C2870   1.414       .  A
C2865      C2883   1.451       .  S
C2866      C2867   1.413       .  A
C2866      C2871   1.506       .  S
C2867      C2868   1.415       .  A
C2867      C2872   1.449       .  S
C2868      C2869   1.414       .  A
C2868      C2884   1.450       .  S
C2869      C2870   1.413       .  A
C2870      C2873   1.449       .  S
C2871      C2874   1.414       .  A
C2871      C2878   1.412       .  A
C2872      N2889   1.157       .  T
C2873      N2891   1.157       .  T
C2874      C2875   1.415       .  A
C2874      C2879   1.449       .  S
C2875      C2876   1.412       .  A
C2875      C2881   1.449       .  S
C2876      C2877   1.413       .  A
C2877      C2878   1.414       .  A
C2877      C2880   1.450       .  S
C2878      C2882   1.450       .  S
C2879      N2886   1.157       .  T
C2880      N2887   1.157       .  T
C2881      N2885   1.157       .  T
C2882      N2888   1.157       .  T
C2883      N2892   1.157       .  T
C2884      N2890   1.157       .  T
C2893      C2894   1.413       .  A
C2893      C2898   1.410       .  A
C2893      C2911   1.451       .  S
C2894      C2895   1.413       .  A
C2894      C2899   1.499       .  S
C2895      C2896   1.411       .  A
C2895      C2900   1.451       .  S
C2896      C2897   1.413       .  A
C2896      C2912   1.451       .  S
C2897      C2898   1.413       .  A
C2898      C2901   1.452       .  S
C2899      C2902   1.414       .  A
C2899      C2906   1.413       .  A
C2900      N2917   1.157       .  T
C2901      N2919   1.157       .  T
C2902      C2903   1.411       .  A
C2902      C2907   1.451       .  S
C2903      C2904   1.412       .  A
C2903      C2909   1.450       .  S
C2904      C2905   1.412       .  A
C2905      C2906   1.409       .  A
C2905      C2908   1.451       .  S
C2906      C2910   1.451       .  S
C2907      N2914   1.157       .  T
C2908      N2915   1.157       .  T
C2909      N2913   1.157       .  T
C2910      N2916   1.157       .  T
C2911      N2920   1.157       .  T
C2912      N2918   1.157       .  T
C2921      C2922   1.410       .  A
C2921      C2926   1.412       .  A
C2921      C2939   1.450       .  S
C2922      C2927   1.505       .  S
C2923      C2924   1.416   1_554  A
C2923      C2928   1.450   1_554  S
C2924      C2940   1.450       .  S
C2925      C2926   1.417       .  A
C2926      C2929   1.452       .  S
C2927      C2934   1.407       .  A
C2928      N2945   1.157       .  T
C2929      N2947   1.157       .  T
C2930      C2931   1.417       .  A
C2930      C2935   1.450       .  S
C2931      C2937   1.450       .  S
C2932      C2933   1.426       .  A
C2933      C2934   1.413       .  A
C2933      C2936   1.451       .  S
C2934      C2938   1.452       .  S
C2935      N2942   1.157       .  T
C2936      N2943   1.158       .  T
C2937      N2941   1.157       .  T
C2938      N2944   1.157       .  T
C2939      N2948   1.157       .  T
C2940      N2946   1.157       .  T
C2949      C2950   1.409       .  A
C2949      C2954   1.418       .  A
C2949      C2967   1.452       .  S
C2950      C2951   1.407       .  A
C2950      C2955   1.506       .  S
C2951      C2952   1.407       .  A
C2951      C2956   1.453       .  S
C2952      C2953   1.430       .  A
C2952      C2968   1.450       .  S
C2953      C2954   1.431       .  A
C2954      C2957   1.448       .  S
C2955      C2958   1.414       .  A
C2955      C2962   1.415       .  A
C2956      N2973   1.157       .  T
C2957      N2975   1.157       .  T
C2958      C2959   1.413       .  A
C2958      C2963   1.451       .  S
C2959      C2960   1.416       .  A
C2959      C2965   1.451       .  S
C2960      C2961   1.414       .  A
C2961      C2962   1.407       .  A
C2961      C2964   1.452       .  S
C2962      C2966   1.452       .  S
C2963      N2970   1.157       .  T
C2964      N2971   1.157       .  T
C2965      N2969   1.157       .  T
C2966      N2972   1.157       .  T
C2967      N2976   1.157       .  T
C2968      N2974   1.158       .  T
C2977      C2978   1.414       .  A
C2977      C2982   1.420       .  A
C2977      C2995   1.450       .  S
C2978      C2979   1.410       .  A
C2978      C2983   1.510       .  S
C2979      C2980   1.411       .  A
C2979      C2984   1.452       .  S
C2980      C2981   1.419       .  A
C2980      C2996   1.449       .  S
C2981      C2982   1.419       .  A
C2982      C2985   1.447       .  S
C2983      C2986   1.414       .  A
C2983      C2990   1.415       .  A
C2984      N3001   1.157       .  T
C2985      N3003   1.157       .  T
C2986      C2987   1.413       .  A
C2986      C2991   1.450       .  S
C2987      C2988   1.415       .  A
C2987      C2993   1.450       .  S
C2988      C2989   1.414       .  A
C2989      C2990   1.416       .  A
C2989      C2992   1.450       .  S
C2990      C2994   1.450       .  S
C2991      N2998   1.157       .  T
C2992      N2999   1.157       .  T
C2993      N2997   1.157       .  T
C2994      N3000   1.157       .  T
C2995      N3004   1.157       .  T
C3005      C3006   1.413       .  A
C3005      C3010   1.417       .  A
C3005      C3023   1.450       .  S
C3006      C3007   1.413       .  A
C3006      C3011   1.511       .  S
C3007      C3008   1.418       .  A
C3007      C3012   1.450       .  S
C3008      C3009   1.417       .  A
C3008      C3024   1.449       .  S
C3009      C3010   1.415       .  A
C3010      C3013   1.449       .  S
C3011      C3014   1.413       .  A
C3011      C3018   1.413       .  A
C3012      N3029   1.157       .  T
C3013      N3031   1.157       .  T
C3014      C3015   1.417       .  A
C3014      C3019   1.450       .  S
C3015      C3016   1.415       .  A
C3015      C3021   1.449       .  S
C3016      C3017   1.415       .  A
C3017      C3018   1.417       .  A
C3017      C3020   1.450       .  S
C3018      C3022   1.449       .  S
C3019      N3026   1.157       .  T
C3020      N3027   1.157       .  T
C3021      N3025   1.157       .  T
C3022      N3028   1.157       .  T
C3023      N3032   1.157       .  T
C3024      N3030   1.157       .  T
C3033      C3034   1.412       .  A
C3033      C3038   1.407       .  A
C3033      C3051   1.451       .  S
C3034      C3035   1.411       .  A
C3034      C3039   1.493       .  S
C3035      C3036   1.406       .  A
C3035      C3040   1.451       .  S
C3036      C3037   1.414       .  A
C3036      C3052   1.451       .  S
C3037      C3038   1.413       .  A
C3038      C3041   1.451       .  S
C3039      C3042   1.407       .  A
C3039      C3046   1.409       .  A
C3040      N3057   1.157       .  T
C3041      N3059   1.157       .  T
C3042      C3043   1.409       .  A
C3042      C3047   1.453       .  S
C3043      C3044   1.425       .  A
C3043      C3049   1.452       .  S
C3044      C3045   1.424       .  A
C3045      C3046   1.409       .  A
C3045      C3048   1.452       .  S
C3046      C3050   1.453       .  S
C3047      N3054   1.157       .  T
C3048      N3055   1.158       .  T
C3049      N3053   1.158       .  T
C3050      N3056   1.157       .  T
C3051      N3060   1.157       .  T
C3052      N3058   1.157       .  T
C3061      C3066   1.414       .  A
C3061      C3079   1.449       .  S
C3062      C3063   1.412       .  A
C3062      C3067   1.503       .  S
C3063      C3064   1.414       .  A
C3063      C3068   1.451       .  S
C3064      C3065   1.415       .  A
C3064      C3080   1.451       .  S
C3066      C3069   1.450       .  S
C3067      C3070   1.413       .  A
C3068      N3085   1.157       .  T
C3069      N3087   1.157       .  T
C3070      C3071   1.417       .  A
C3070      C3075   1.450       .  S
C3071      C3072   1.416       .  A
C3071      C3077   1.449       .  S
C3073      C3074   1.413       .  A
C3073      C3076   1.452       .  S
C3074      C3078   1.452       .  S
C3075      N3082   1.157       .  T
C3076      N3083   1.157       .  T
C3077      N3081   1.157       .  T
C3078      N3084   1.157       .  T
C3079      N3088   1.157       .  T
C3080      N3086   1.158       .  T
C3089      C3090   1.405       .  A
C3089      C3094   1.405       .  A
C3089      C3107   1.453       .  S
C3090      C3091   1.408       .  A
C3090      C3095   1.494       .  S
C3091      C3092   1.415       .  A
C3091      C3096   1.451       .  S
C3092      C3093   1.426       .  A
C3092      C3108   1.450       .  S
C3093      C3094   1.427       .  A
C3094      C3097   1.452       .  S
C3095      C3098   1.411       .  A
C3095      C3102   1.412       .  A
C3096      N3113   1.157       .  T
C3098      C3099   1.409       .  A
C3098      C3103   1.450       .  S
C3099      C3100   1.412       .  A
C3099      C3105   1.451       .  S
C3100      C3101   1.410       .  A
C3101      C3102   1.407       .  A
C3101      C3104   1.451       .  S
C3102      C3106   1.451       .  S
C3103      N3110   1.157       .  T
C3104      N3111   1.157       .  T
C3105      N3109   1.157       .  T
C3106      N3112   1.157       .  T
C3107      N3116   1.157       .  T
C3108      N3114   1.158       .  T
C3117      C3118   1.410       .  A
C3117      C3122   1.413       .  A
C3117      C3135   1.451       .  S
C3118      C3119   1.415       .  A
C3118      C3123   1.513       .  S
C3119      C3120   1.420       .  A
C3119      C3124   1.450       .  S
C3120      C3121   1.418       .  A
C3120      C3136   1.447       .  S
C3121      C3122   1.421       .  A
C3122      C3125   1.449       .  S
C3123      C3126   1.415       .  A
C3123      C3130   1.415       .  A
C3124      N3141   1.157       .  T
C3126      C3127   1.416       .  A
C3126      C3131   1.451       .  S
C3127      C3128   1.413       .  A
C3127      C3133   1.450       .  S
C3128      C3129   1.415       .  A
C3129      C3130   1.417       .  A
C3129      C3132   1.450       .  S
C3130      C3134   1.450       .  S
C3131      N3138   1.157       .  T
C3132      N3139   1.157       .  T
C3133      N3137   1.157       .  T
C3134      N3140   1.157       .  T
C3135      N3144   1.157       .  T
C3136      N3142   1.158       .  T
C3145      C3146   1.412       .  A
C3145      C3150   1.412       .  A
C3145      C3163   1.451       .  S
C3146      C3147   1.412       .  A
C3146      C3151   1.502       .  S
C3147      C3148   1.413       .  A
C3147      C3152   1.450       .  S
C3148      C3149   1.414       .  A
C3148      C3164   1.451       .  S
C3149      C3150   1.416       .  A
C3150      C3153   1.452       .  S
C3151      C3154   1.412       .  A
C3151      C3158   1.412       .  A
C3152      N3169   1.157       .  T
C3153      N3171   1.157       .  T
C3154      C3155   1.412       .  A
C3154      C3159   1.450       .  S
C3155      C3156   1.415       .  A
C3155      C3161   1.451       .  S
C3156      C3157   1.415       .  A
C3157      C3158   1.413       .  A
C3157      C3160   1.450       .  S
C3158      C3162   1.450       .  S
C3159      N3166   1.157       .  T
C3160      N3167   1.157       .  T
C3161      N3165   1.157       .  T
C3162      N3168   1.157       .  T
C3163      N3172   1.157       .  T
C3164      N3170   1.157       .  T
C3173      C3174   1.415       .  A
C3173      C3178   1.414       .  A
C3173      C3191   1.450       .  S
C3174      C3175   1.413       .  A
C3174      C3179   1.503       .  S
C3175      C3176   1.410       .  A
C3175      C3180   1.451       .  S
C3176      C3177   1.412       .  A
C3176      C3192   1.451       .  S
C3177      C3178   1.412       .  A
C3178      C3181   1.450       .  S
C3179      C3182   1.413       .  A
C3179      C3186   1.414       .  A
C3180      N3197   1.157       .  T
C3181      N3199   1.157       .  T
C3182      C3183   1.411       .  A
C3182      C3187   1.451       .  S
C3183      C3184   1.412       .  A
C3183      C3189   1.451       .  S
C3184      C3185   1.412       .  A
C3185      C3186   1.413       .  A
C3185      C3188   1.450       .  S
C3186      C3190   1.450       .  S
C3187      N3194   1.157       .  T
C3188      N3195   1.157       .  T
C3189      N3193   1.157   1_556  T
C3190      N3196   1.157       .  T
C3191      N3200   1.157       .  T
C3192      N3198   1.157       .  T
C3201      C3206   1.421       .  A
C3201      C3219   1.451       .  S
C3202      C3203   1.406       .  A
C3202      C3207   1.505       .  S
C3203      C3204   1.408       .  A
C3203      C3208   1.455       .  S
C3204      C3205   1.426       .  A
C3204      C3220   1.448       .  S
C3206      C3209   1.447       .  S
C3207      C3210   1.416       .  A
C3207      C3214   1.410       .  A
C3208      N3225   1.157       .  T
C3209      N3227   1.158       .  T
C3210      C3211   1.418       .  A
C3211      C3212   1.412       .  A
C3212      C3213   1.417       .  A
C3213      C3214   1.405       .  A
C3213      C3216   1.451       .  S
C3214      C3218   1.454       .  S
C3215      N3222   1.157       .  T
C3216      N3223   1.157       .  T
C3217      N3221   1.157   1_655  T
C3218      N3224   1.157       .  T
C3219      N3228   1.157       .  T
C3220      N3226   1.156       .  T
C3229      C3230   1.408       .  A
C3229      C3234   1.411       .  A
C3229      C3247   1.451       .  S
C3230      C3231   1.409       .  A
C3230      C3235   1.498       .  S
C3231      C3232   1.412       .  A
C3231      C3236   1.450       .  S
C3232      C3233   1.418       .  A
C3232      C3248   1.447       .  S
C3233      C3234   1.423       .  A
C3234      C3237   1.450       .  S
C3235      C3238   1.411       .  A
C3235      C3242   1.412       .  A
C3236      N3253   1.157       .  T
C3237      N3255   1.158       .  T
C3238      C3239   1.409       .  A
C3238      C3243   1.450       .  S
C3239      C3240   1.413       .  A
C3239      C3245   1.450       .  S
C3240      C3241   1.413       .  A
C3241      C3242   1.413       .  A
C3241      C3244   1.450       .  S
C3242      C3246   1.450       .  S
C3243      N3250   1.157       .  T
C3244      N3251   1.157       .  T
C3245      N3249   1.157       .  T
C3246      N3252   1.157       .  T
C3247      N3256   1.157       .  T
C3248      N3254   1.157       .  T
C3257      C3258   1.415       .  A
C3257      C3262   1.414       .  A
C3257      C3275   1.451       .  S
C3258      C3259   1.415       .  A
C3258      C3263   1.514       .  S
C3259      C3260   1.415       .  A
C3259      C3264   1.451       .  S
C3260      C3261   1.416       .  A
C3260      C3276   1.449       .  S
C3261      C3262   1.416       .  A
C3262      C3265   1.451       .  S
C3263      C3266   1.418       .  A
C3263      C3270   1.414       .  A
C3264      N3281   1.157       .  T
C3265      N3283   1.157       .  T
C3266      C3267   1.415       .  A
C3266      C3271   1.451       .  S
C3267      C3268   1.417       .  A
C3267      C3273   1.452       .  S
C3268      C3269   1.417       .  A
C3269      C3270   1.413       .  A
C3269      C3272   1.451       .  S
C3270      C3274   1.451       .  S
C3271      N3278   1.157       .  T
C3272      N3279   1.157       .  T
C3273      N3277   1.158       .  T
C3274      N3280   1.157       .  T
C3275      N3284   1.157       .  T
C3276      N3282   1.157       .  T
C3285      C3286   1.415       .  A
C3285      C3290   1.412       .  A
C3285      C3303   1.451       .  S
C3286      C3287   1.416       .  A
C3286      C3291   1.508       .  S
C3287      C3288   1.414       .  A
C3287      C3292   1.450       .  S
C3288      C3289   1.411       .  A
C3288      C3304   1.450       .  S
C3289      C3290   1.411       .  A
C3290      C3293   1.450       .  S
C3291      C3294   1.415       .  A
C3291      C3298   1.416       .  A
C3292      N3309   1.157       .  T
C3293      N3311   1.157       .  T
C3294      C3295   1.413       .  A
C3294      C3299   1.451       .  S
C3295      C3296   1.414       .  A
C3295      C3301   1.452       .  S
C3296      C3297   1.413       .  A
C3297      C3298   1.414       .  A
C3297      C3300   1.450       .  S
C3298      C3302   1.451       .  S
C3299      N3306   1.157       .  T
C3300      N3307   1.157       .  T
C3301      N3305   1.157       .  T
C3302      N3308   1.157       .  T
C3303      N3312   1.157       .  T
C3304      N3310   1.157       .  T
C3313      C3314   1.411       .  A
C3313      C3318   1.410       .  A
C3313      C3331   1.450       .  S
C3314      C3315   1.410       .  A
C3314      C3319   1.494       .  S
C3315      C3316   1.411       .  A
C3315      C3320   1.450       .  S
C3316      C3317   1.415       .  A
C3316      C3332   1.451       .  S
C3317      C3318   1.413       .  A
C3318      C3321   1.451       .  S
C3319      C3322   1.411       .  A
C3319      C3326   1.411       .  A
C3320      N3337   1.157       .  T
C3321      N3339   1.157       .  T
C3322      C3323   1.410       .  A
C3322      C3327   1.449       .  S
C3323      C3324   1.413       .  A
C3323      C3329   1.450       .  S
C3324      C3325   1.412       .  A
C3325      C3326   1.409       .  A
C3325      C3328   1.451       .  S
C3326      C3330   1.450       .  S
C3327      N3334   1.157       .  T
C3328      N3335   1.157       .  T
C3329      N3333   1.157       .  T
C3330      N3336   1.157       .  T
C3331      N3340   1.157       .  T
C3332      N3338   1.157       .  T
C3341      C3346   1.415       .  A
C3341      C3359   1.451       .  S
C3342      C3343   1.408       .  A
C3342      C3347   1.508       .  S
C3343      C3344   1.417       .  A
C3343      C3348   1.452       .  S
C3344      C3345   1.428       .  A
C3344      C3360   1.451       .  S
C3346      C3349   1.451       .  S
C3347      C3350   1.410       .  A
C3348      N3365   1.157       .  T
C3349      N3367   1.157       .  T
C3350      C3351   1.413       .  A
C3350      C3355   1.451       .  S
C3351      C3352   1.420       .  A
C3351      C3357   1.450       .  S
C3353      C3354   1.415       .  A
C3353      C3356   1.448       .  S
C3354      C3358   1.450       .  S
C3355      N3362   1.157       .  T
C3356      N3363   1.157       .  T
C3357      N3361   1.157       .  T
C3358      N3364   1.157       .  T
C3359      N3368   1.157       .  T
C3360      N3366   1.158       .  T
C3369      C3370   1.404       .  A
C3369      C3374   1.408       .  A
C3369      C3387   1.454       .  S
C3370      C3371   1.406       .  A
C3370      C3375   1.493       .  S
C3371      C3372   1.413       .  A
C3371      C3376   1.452       .  S
C3372      C3373   1.429       .  A
C3372      C3388   1.451       .  S
C3373      C3374   1.430       .  A
C3374      C3377   1.451       .  S
C3375      C3378   1.411       .  A
C3375      C3382   1.412       .  A
C3376      N3393   1.157       .  T
C3378      C3379   1.410       .  A
C3378      C3383   1.450       .  S
C3379      C3380   1.411       .  A
C3379      C3385   1.450       .  S
C3380      C3381   1.411       .  A
C3381      C3382   1.406       .  A
C3381      C3384   1.451       .  S
C3382      C3386   1.451       .  S
C3383      N3390   1.157       .  T
C3384      N3391   1.157       .  T
C3385      N3389   1.157       .  T
C3386      N3392   1.157       .  T
C3387      N3396   1.157       .  T
C3388      N3394   1.158       .  T
C3397      C3398   1.415       .  A
C3397      C3402   1.414       .  A
C3397      C3415   1.451       .  S
C3398      C3399   1.415       .  A
C3398      C3403   1.512       .  S
C3399      C3400   1.412       .  A
C3399      C3404   1.450       .  S
C3400      C3401   1.410       .  A
C3400      C3416   1.446       .  S
C3401      C3402   1.416       .  A
C3402      C3405   1.449       .  S
C3403      C3406   1.416       .  A
C3403      C3410   1.414       .  A
C3404      N3421   1.157       .  T
C3405      N3423   1.157       .  T
C3406      C3407   1.414       .  A
C3406      C3411   1.451       .  S
C3407      C3408   1.417       .  A
C3407      C3413   1.451       .  S
C3408      C3409   1.418       .  A
C3409      C3410   1.413       .  A
C3409      C3412   1.450       .  S
C3410      C3414   1.451       .  S
C3411      N3418   1.157       .  T
C3412      N3419   1.157       .  T
C3413      N3417   1.157       .  T
C3414      N3420   1.157       .  T
C3415      N3424   1.157       .  T
C3416      N3422   1.156       .  T
