geometry optimzed in LAMMPS
_audit_creation_date              2020-11-30 
_audit_creation_method            'lammps2cif' 
_symmetry_space_group_name_H-M    'P1' 
_symmetry_Int_Tables_number       1 
_symmetry_cell_setting            triclinic 
loop_ 
_symmetry_equiv_pos_as_xyz 
  x,y,z 
_cell_length_a                    41.56724895 
_cell_length_b                    41.47456661450774 
_cell_length_c                    30.87755677188674 
_cell_angle_alpha                 90.27094729579542 
_cell_angle_beta                  90.03235296834421 
_cell_angle_gamma                 120.04698814846849 
loop_ 
_atom_site_label 
_atom_site_type_symbol 
_atom_site_fract_x 
_atom_site_fract_y 
_atom_site_fract_z 
_atom_site_charge 
O1          O  0.20731775  0.84464058  0.11045142    -0.85100
O2          O  0.14482746  0.78421956  0.13939851    -0.82100
C3          C  0.12385206  0.75308370  0.15628361     0.98400
O4          O  0.13436219  0.74422908  0.19054766    -0.82100
O5          O  0.18506590  0.72839726  0.15406064    -0.84800
C6          C  0.21488706  0.73094257  0.14075770     1.02900
O7          O  0.24475414  0.76231659  0.14209753    -0.77600
O8          O  0.23529194  0.81309162  0.09497672    -0.77700
C9          C  0.21989915  0.83103476  0.08285440     1.02900
O10         O  0.22734096  0.86899256  0.19945369    -0.85100
O11         O  0.16148761  0.81210815  0.22873173    -0.82100
C12         C  0.17221802  0.80246670  0.26228477     0.98400
O13         O  0.18822949  0.78362904  0.25898091    -0.82200
O14         O  0.23405879  0.75889814  0.22592428    -0.84800
C15         C  0.26721620  0.78570968  0.22814586     1.02900
O16         O  0.27558753  0.81644895  0.21128137    -0.77600
O17         O  0.27216601  0.86960384  0.16154736    -0.77700
C18         C  0.26068960  0.88565024  0.18724200     1.02800
Cr19       Cr  0.18682733  0.82554632  0.17002760     1.93700
Cr20       Cr  0.18688190  0.75701824  0.20565141     1.93200
Cr21       Cr  0.25368859  0.81448759  0.15390930     1.39100
O22         O  0.20928102  0.79920831  0.17650535    -1.22800
O23         O  0.18968372  0.83943046  0.60839462    -0.85100
O24         O  0.13498587  0.78029721  0.65038359    -0.82100
C25         C  0.11939405  0.74785163  0.66538295     0.98400
O26         O  0.13665036  0.73769053  0.69083880    -0.82100
O27         O  0.18328189  0.72731575  0.63935671    -0.84800
C28         C  0.21120032  0.73111975  0.61941094     1.02900
O29         O  0.23918402  0.76340272  0.61547288    -0.77600
O30         O  0.21167239  0.80582334  0.57981062    -0.77700
C31         C  0.19334007  0.82229855  0.57615330     1.02900
O32         O  0.22741236  0.86554583  0.69267072    -0.85100
O33         O  0.16892400  0.80931922  0.73410755    -0.82100
C34         C  0.18333483  0.79773031  0.76178673     0.98400
O35         O  0.19891814  0.77988190  0.74981332    -0.82200
O36         O  0.24438908  0.76405298  0.70050480    -0.84800
C37         C  0.27598081  0.79332480  0.69554577     1.02900
O38         O  0.27786750  0.82128280  0.67744568    -0.77600
O39         O  0.25997714  0.86827973  0.63600433    -0.77700
C40         C  0.25651330  0.88271049  0.67069051     1.02800
Cr41       Cr  0.18204501  0.82207488  0.67098009     1.93700
Cr42       Cr  0.19172469  0.75530076  0.69340136     1.93200
Cr43       Cr  0.24421769  0.81366516  0.62931465     1.39100
O44         O  0.20582280  0.79692474  0.66487635    -1.22800
O45         O  0.62237670  0.82944070  0.37342865    -0.85100
O46         O  0.62249421  0.76797464  0.34498064    -0.82100
C47         C  0.60907155  0.73480009  0.33259645     0.98400
O48         O  0.58466631  0.72169832  0.30273601    -0.82100
O49         O  0.52115147  0.71084922  0.34370676    -0.84800
C50         C  0.49639917  0.71655221  0.35892147     1.02900
O51         O  0.49933196  0.74836813  0.35560415    -0.77600
O52         O  0.56477581  0.79745838  0.39586290    -0.77700
C53         C  0.59899419  0.81606711  0.40415654     1.02900
O54         O  0.61754468  0.84798462  0.28278598    -0.85100
O55         O  0.62418019  0.78910228  0.25451708    -0.82100
C56         C  0.60044314  0.77431614  0.22417809     0.98400
O57         O  0.56632114  0.75655723  0.23262341    -0.82200
O58         O  0.50056560  0.74034205  0.27148902    -0.84800
C59         C  0.49683464  0.76888486  0.26824324     1.02900
O60         O  0.52053091  0.79945573  0.28484302    -0.77600
O61         O  0.58131541  0.85290271  0.33021026    -0.77700
C62         C  0.60432398  0.86659903  0.29935106     1.02800
Cr63       Cr  0.61812009  0.80673280  0.31378550     1.93700
Cr64       Cr  0.54524365  0.73572251  0.28924415     1.93200
Cr65       Cr  0.54355387  0.79838855  0.33992673     1.39100
O66         O  0.56903488  0.78016442  0.31424528    -1.22800
O67         O  0.62359527  0.80117322  0.87665932    -0.85100
O68         O  0.62815288  0.76560585  0.80495032    -0.82100
C69         C  0.60518824  0.73231600  0.81575708     0.98400
O70         O  0.57080569  0.71985715  0.81035627    -0.82100
O71         O  0.50507373  0.72046068  0.81207590    -0.84800
C72         C  0.50085918  0.72040033  0.85240585     1.02900
O73         O  0.52118817  0.74957481  0.87443061    -0.77600
O74         O  0.58363401  0.81830415  0.89512357    -0.77700
C75         C  0.60799406  0.80991091  0.90557196     1.02900
O76         O  0.62752950  0.86092881  0.82413291    -0.85100
O77         O  0.62624190  0.82297162  0.75199861    -0.82100
C78         C  0.61411827  0.79826547  0.72302176     0.98400
O79         O  0.59126312  0.76485184  0.73259589    -0.82200
O80         O  0.52724848  0.77113970  0.74322363    -0.84800
C81         C  0.50557612  0.77987419  0.76222470     1.02900
O82         O  0.50652454  0.78386545  0.80289609    -0.77600
O83         O  0.57027737  0.84915549  0.81713873    -0.77700
C84         C  0.60472458  0.87135174  0.81341805     1.02800
Cr85       Cr  0.62282509  0.81087427  0.81426749     1.93700
Cr86       Cr  0.55063540  0.74703273  0.77697681     1.93200
Cr87       Cr  0.54758562  0.79938488  0.84527400     1.39100
O88         O  0.57366830  0.78592040  0.81221010    -1.22800
O89         O  0.19195662  0.37723400  0.95181412    -0.85100
O90         O  0.22912710  0.37162254  0.02096399    -0.82100
C91         C  0.26210686  0.39429628  0.00927180     0.98400
O92         O  0.27524162  0.42878377  0.01551673    -0.82100
O93         O  0.27567017  0.49441871  0.00998354    -0.84800
C94         C  0.27302566  0.49669953  0.96945829     1.02900
O95         O  0.24233763  0.47590589  0.95035990    -0.77600
O96         O  0.17047504  0.41454243  0.93833862    -0.77700
C97         C  0.17976781  0.39150452  0.92533482     1.02900
O98         O  0.13479585  0.37465282  0.00880058    -0.85100
O99         O  0.17529927  0.37432527  0.07810117    -0.82100
C100        C  0.20095830  0.38760928  0.10589340     0.98400
O101        O  0.23341792  0.41221753  0.09501043    -0.82200
O102        O  0.22786207  0.47656498  0.08348810    -0.84800
C103        C  0.21913081  0.49810030  0.06420749     1.02900
O104        O  0.21626510  0.49686327  0.02359937    -0.77600
O105        O  0.14901374  0.43260920  0.01941508    -0.77700
C106        C  0.12619949  0.39821047  0.02257231     1.02800
Cr107      Cr  0.18454622  0.37793113  0.01498098     1.93700
Cr108      Cr  0.25012683  0.45106955  0.04906264     1.93200
Cr109      Cr  0.19535325  0.45289246  0.98493705     1.39100
O110        O  0.21000783  0.42719916  0.01648157    -1.22800
O111        O  0.18756034  0.36726752  0.45156802    -0.85100
O112        O  0.23148606  0.37215754  0.51968142    -0.82100
C113        C  0.26242179  0.39486060  0.50280805     0.98400
O114        O  0.27319021  0.42920972  0.50327957    -0.82100
O115        O  0.26856096  0.49251336  0.49500399    -0.84800
C116        C  0.26115627  0.49339423  0.45561443     1.02900
O117        O  0.23063230  0.46877870  0.43946751    -0.77600
O118        O  0.16347413  0.40171313  0.43369051    -0.77700
C119        C  0.17316114  0.37819479  0.42360470     1.02900
O120        O  0.13182093  0.36450101  0.51055915    -0.85100
O121        O  0.17854118  0.37628775  0.57742387    -0.82100
C122        C  0.20568174  0.39361830  0.60264899     0.98400
O123        O  0.23732451  0.41661026  0.58760327    -0.82200
O124        O  0.22744698  0.47721500  0.57185921    -0.84800
C125        C  0.21491543  0.49564675  0.55284593     1.02900
O126        O  0.20363453  0.48859312  0.51406718    -0.77600
O127        O  0.14051194  0.42107883  0.51320717    -0.77700
C128        C  0.12048814  0.38678764  0.52053637     1.02800
Cr129      Cr  0.18400844  0.37367500  0.51443080     1.93700
Cr130      Cr  0.24847470  0.45135843  0.53754041     1.93200
Cr131      Cr  0.18592042  0.44321799  0.47734599     1.39100
O132        O  0.20602388  0.42286635  0.50985446    -1.22800
O133        O  0.36753285  0.17979605  0.38981200    -0.85100
O134        O  0.36622202  0.23838850  0.35228284    -0.82100
C135        C  0.38007141  0.27063037  0.33678763     0.98400
O136        O  0.40568923  0.28193762  0.30852323    -0.82100
O137        O  0.46778517  0.29521205  0.35189398    -0.84800
C138        C  0.49432265  0.29283722  0.36738860     1.02900
O139        O  0.49132380  0.26105387  0.37118132    -0.77600
O140        O  0.42450346  0.21571572  0.41346779    -0.77700
C141        C  0.39009314  0.19725207  0.42054510     1.02900
O142        O  0.37456068  0.15584523  0.30226135    -0.85100
O143        O  0.36581205  0.21020726  0.26637372    -0.82100
C144        C  0.38926835  0.22229715  0.23584951     0.98400
O145        O  0.42346849  0.24162615  0.24371959    -0.82200
O146        O  0.48926415  0.26032302  0.28500546    -0.84800
C147        C  0.49361675  0.23212620  0.28855095     1.02900
O148        O  0.47017467  0.20362185  0.30850804    -0.77600
O149        O  0.40925699  0.15448625  0.35449018    -0.77700
C150        C  0.38884782  0.13948180  0.32149350     1.02800
Cr151      Cr  0.37200668  0.19785793  0.32778708     1.93700
Cr152      Cr  0.44465224  0.26668904  0.29912265     1.93200
Cr153      Cr  0.44663265  0.20969782  0.36017478     1.39100
O154        O  0.42107113  0.22488559  0.32874402    -1.22800
O155        O  0.35485815  0.16925890  0.88886756    -0.85100
O156        O  0.36310410  0.23436653  0.86078213    -0.82100
C157        C  0.37831146  0.26709062  0.84683960     0.98400
O158        O  0.40071316  0.27650516  0.81528140    -0.82100
O159        O  0.46091335  0.28387930  0.86108357    -0.84800
C160        C  0.48363207  0.27630226  0.87877695     1.02900
O161        O  0.47894184  0.24365378  0.87599778    -0.77600
O162        O  0.41222300  0.19469295  0.91279161    -0.77700
C163        C  0.37790689  0.17920118  0.91998793     1.02900
O164        O  0.35874785  0.14945176  0.79908284    -0.85100
O165        O  0.35993529  0.21141891  0.76986482    -0.82100
C166        C  0.38379582  0.21961741  0.74002432     0.98400
O167        O  0.41792401  0.23670373  0.74888212    -0.82200
O168        O  0.48220972  0.25315430  0.79160018    -0.84800
C169        C  0.48517396  0.22426994  0.78894821     1.02900
O170        O  0.45955994  0.19393391  0.80345193    -0.77600
O171        O  0.39582614  0.14181406  0.84291517    -0.77700
C172        C  0.37204281  0.12998520  0.81250939     1.02800
Cr173      Cr  0.36259644  0.19279122  0.82970040     1.93700
Cr174      Cr  0.43815618  0.25934427  0.80569354     1.93200
Cr175      Cr  0.43464867  0.19483817  0.85710452     1.39100
O176        O  0.41175030  0.21554571  0.83100545    -1.22800
O177        O  0.80569720  0.17248204  0.12197299    -0.85100
O178        O  0.86244676  0.23484509  0.15701959    -0.82100
C179        C  0.87960950  0.26737610  0.17197705     0.98400
O180        O  0.86411831  0.27849738  0.19874880    -0.82100
O181        O  0.81318339  0.28570610  0.15003769    -0.84800
C182        C  0.78344901  0.28009481  0.13274766     1.02900
O183        O  0.75540315  0.24748711  0.13230411    -0.77600
O184        O  0.77825802  0.20164904  0.09557132    -0.77700
C185        C  0.79776857  0.18658511  0.09016458     1.02900
O186        O  0.77608884  0.15027049  0.20957616    -0.85100
O187        O  0.83588433  0.21000458  0.24454928    -0.82100
C188        C  0.82151795  0.22095121  0.27317836     0.98400
O189        O  0.80595440  0.23903371  0.26224846    -0.82200
O190        O  0.75844701  0.25375823  0.21729937    -0.84800
C191        C  0.72655594  0.22464808  0.21795593     1.02900
O192        O  0.72163407  0.19495379  0.20046162    -0.77600
O193        O  0.73600778  0.14386402  0.15974974    -0.77700
C194        C  0.74550804  0.13044425  0.19095372     1.02800
Cr195      Cr  0.81810153  0.19363631  0.18301419     1.93700
Cr196      Cr  0.80943927  0.26103284  0.20533958     1.93200
Cr197      Cr  0.75100126  0.19807701  0.14893798     1.39100
O198        O  0.79283228  0.21751036  0.17934651    -1.22800
O199        O  0.79586428  0.17093017  0.62216402    -0.85100
O200        O  0.85488261  0.23274270  0.65550102    -0.82100
C201        C  0.87345188  0.26488646  0.67148854     0.98400
O202        O  0.86041297  0.27462276  0.70305557    -0.82100
O203        O  0.81168905  0.28874037  0.65960732    -0.84800
C204        C  0.78334627  0.28384371  0.63932558     1.02900
O205        O  0.75412716  0.25196128  0.63898773    -0.77600
O206        O  0.77292356  0.20495673  0.59838237    -0.77700
C207        C  0.78943190  0.18705339  0.59134016     1.02900
O208        O  0.76867730  0.14929787  0.71042605    -0.85100
O209        O  0.83243936  0.20737545  0.74341821    -0.82100
C210        C  0.81765520  0.21567318  0.77415341     0.98400
O211        O  0.80111554  0.23348700  0.76669490    -0.82200
O212        O  0.75559728  0.25442506  0.72517064    -0.84800
C213        C  0.72334164  0.22581423  0.72274259     1.02900
O214        O  0.71893657  0.19651460  0.70527268    -0.77600
O215        O  0.72971727  0.14605574  0.66070459    -0.77700
C216        C  0.73735702  0.13154644  0.69237160     1.02800
Cr217      Cr  0.81140019  0.19180544  0.68294321     1.93700
Cr218      Cr  0.80614855  0.25976386  0.71204797     1.93200
Cr219      Cr  0.74675939  0.20086924  0.65262164     1.39100
O220        O  0.78820787  0.21765620  0.68242598    -1.22800
O221        O  0.83441183  0.63506653  0.93342347    -0.85100
O222        O  0.77028387  0.63133259  0.95831326    -0.82100
C223        C  0.73735257  0.61735198  0.97133935     0.98400
O224        O  0.72630792  0.59490328  0.00290246    -0.82100
O225        O  0.71827481  0.53288161  0.96075981    -0.84800
C226        C  0.72470587  0.50852489  0.94553256     1.02900
O227        O  0.75648435  0.51166325  0.95046804    -0.77600
O228        O  0.80691605  0.57699732  0.91093185    -0.77700
C229        C  0.82376165  0.61130302  0.90287419     1.02900
O230        O  0.85220405  0.63277640  0.02441007    -0.85100
O231        O  0.79172791  0.63599687  0.05025184    -0.82100
C232        C  0.77936861  0.61270783  0.08109894     0.98400
O233        O  0.76187093  0.57825662  0.07329492    -0.82200
O234        O  0.74620897  0.51200371  0.03445237    -0.84800
C235        C  0.77483219  0.50880426  0.03932338     1.02900
O236        O  0.80534574  0.53318466  0.02371236    -0.77600
O237        O  0.85935567  0.59469397  0.98170250    -0.77700
C238        C  0.87150337  0.61893858  0.01180359     1.02800
Cr239      Cr  0.81035479  0.63029972  0.99165209     1.93700
Cr240      Cr  0.74149814  0.55653665  0.01625754     1.93200
Cr241      Cr  0.80574570  0.55620182  0.96822989     1.39100
O242        O  0.78596659  0.58109179  0.99209961    -1.22800
O243        O  0.81561189  0.64002261  0.42823791    -0.85100
O244        O  0.77952002  0.64569767  0.49880904    -0.82100
C245        C  0.74627054  0.62389056  0.48702943     0.98400
O246        O  0.73280033  0.58917891  0.49069843    -0.82100
O247        O  0.72992500  0.52285180  0.48025742    -0.84800
C248        C  0.73419107  0.52071991  0.44004156     1.02900
O249        O  0.76536483  0.54104687  0.42228635    -0.77600
O250        O  0.83605779  0.60244623  0.41186912    -0.77700
C251        C  0.82580823  0.62504900  0.39997009     1.02900
O252        O  0.87265486  0.64048219  0.48401850    -0.85100
O253        O  0.83249033  0.63955542  0.55492733    -0.82100
C254        C  0.80680676  0.62520898  0.58258899     0.98400
O255        O  0.77412022  0.60169451  0.57062521    -0.82200
O256        O  0.77606165  0.53609481  0.55453560    -0.84800
C257        C  0.78291388  0.51361604  0.53413997     1.02900
O258        O  0.79078071  0.51842597  0.49439058    -0.77600
O259        O  0.85827527  0.58242917  0.49181862    -0.77700
C260        C  0.88125825  0.61666727  0.49655871     1.02800
Cr261      Cr  0.82329853  0.63789005  0.49142059     1.93700
Cr262      Cr  0.75643638  0.56455581  0.52201368     1.93200
Cr263      Cr  0.81182013  0.56328518  0.45746355     1.39100
O264        O  0.79715832  0.58852775  0.49055484    -1.22800
C265        C  0.78727238  0.62534608  0.70250245    -0.01700
C266        C  0.82301784  0.64179940  0.72106856     0.06900
C267        C  0.85408188  0.65638265  0.69379866    -0.07700
C268        C  0.84999964  0.65329840  0.64854087     0.04300
C269        C  0.81395409  0.63491967  0.62971038    -0.14900
C270        C  0.78306657  0.62230954  0.65744019    -0.08300
C271        C  0.82805540  0.63856534  0.76819986     0.05200
C272        C  0.83762669  0.61215128  0.78133569    -0.09400
C273        C  0.83825387  0.60418394  0.82518873     0.00200
C274        C  0.82972191  0.62330892  0.85705608     0.00100
C275        C  0.82215789  0.65128270  0.84402237    -0.12900
C276        C  0.82087454  0.65874752  0.79992739     0.00600
C277        C  0.84735580  0.57593007  0.83649974     0.39900
C278        C  0.81110666  0.68636819  0.78801475     0.36500
C279        C  0.75430816  0.60877259  0.72904075     0.36200
C280        C  0.88337672  0.66770095  0.62295430     0.37000
N281        N  0.85460740  0.55323521  0.84542525    -0.43800
N282        N  0.80317308  0.70848762  0.77866891    -0.44300
N283        N  0.91051609  0.67956673  0.60309096    -0.41600
N284        N  0.72784392  0.59525719  0.75021337    -0.43100
H285        H  0.75514970  0.60848483  0.64404427     0.13100
H286        H  0.88164744  0.66886357  0.70806716     0.09600
H287        H  0.84324333  0.59663472  0.75703976     0.10700
H288        H  0.81524548  0.66590273  0.86816306     0.16500
C289        C  0.83157598  0.65812191  0.18459883    -0.01700
C290        C  0.80469849  0.63710577  0.21609360     0.06900
C291        C  0.76812857  0.61242273  0.20294456    -0.07700
C292        C  0.75865664  0.60645303  0.15893887     0.04300
C293        C  0.78618106  0.62512857  0.12705208    -0.14900
C294        C  0.82221885  0.65203499  0.14035682    -0.08300
C295        C  0.81449787  0.63756704  0.26250608     0.05200
C296        C  0.80886670  0.65996842  0.29207198    -0.09400
C297        C  0.81373529  0.65767581  0.33678162     0.00200
C298        C  0.82462269  0.63245189  0.35271210     0.00100
C299        C  0.83146543  0.61105173  0.32243224    -0.12900
C300        C  0.82626175  0.61322702  0.27792990     0.00600
C301        C  0.80626717  0.68086030  0.36523068     0.39900
C302        C  0.83143568  0.58889124  0.24871914     0.36500
C303        C  0.86893226  0.68545207  0.19718724     0.36200
C304        C  0.72045868  0.58086709  0.14731256     0.37000
N305        N  0.80017909  0.69942848  0.38794614    -0.43800
N306        N  0.83535412  0.56929703  0.22524554    -0.44300
N307        N  0.68977774  0.56055851  0.13806335    -0.41600
N308        N  0.89864483  0.70766520  0.20777709    -0.43100
H309        H  0.84352438  0.66682788  0.11627986     0.13100
H310        H  0.74719924  0.59679090  0.22715184     0.09600
H311        H  0.79959121  0.67857421  0.28022169     0.10700
H312        H  0.83957351  0.59134986  0.33352506     0.16500
C313        C  0.74851638  0.34942461  0.61023806    -0.01700
C314        C  0.78143963  0.38181351  0.59807978     0.06900
C315        C  0.81476363  0.38108492  0.59605331    -0.07700
C316        C  0.81583454  0.34887491  0.60719098     0.04300
C317        C  0.78296394  0.31659893  0.62073677    -0.14900
C318        C  0.74945872  0.31722000  0.62136505    -0.08300
C319        C  0.78075673  0.41537202  0.58302864     0.05200
C320        C  0.78901685  0.44496826  0.61176340    -0.09400
C321        C  0.78871793  0.47707071  0.59756470     0.00200
C322        C  0.78005854  0.47962053  0.55390265     0.00100
C323        C  0.77095562  0.44928868  0.52585305    -0.12900
C324        C  0.77151331  0.41767998  0.53986231     0.00600
C325        C  0.79905684  0.50742785  0.62769762     0.39900
C326        C  0.76328567  0.38818182  0.50904625     0.36500
C327        C  0.71350309  0.34879988  0.61177603     0.36200
C328        C  0.85078605  0.34946917  0.60344078     0.37000
N329        N  0.80746056  0.53177547  0.65190360    -0.43800
N330        N  0.75685154  0.36458550  0.48439585    -0.44300
N331        N  0.87875014  0.34989877  0.60033377    -0.41600
N332        N  0.68548393  0.34840151  0.61295578    -0.43100
H333        H  0.72406954  0.29286814  0.63199901     0.13100
H334        H  0.83989180  0.40564013  0.58529056     0.09600
H335        H  0.79610794  0.44313172  0.64511691     0.10700
H336        H  0.76386604  0.45042068  0.49228059     0.16500
C337        C  0.80551928  0.44081628  0.07304660    -0.01700
C338        C  0.77174707  0.40842431  0.08307346     0.06900
C339        C  0.73862495  0.40967686  0.08170421    -0.07700
C340        C  0.73868830  0.44234766  0.06949925     0.04300
C341        C  0.77261895  0.47477430  0.05861619    -0.14900
C342        C  0.80572139  0.47338875  0.06143504    -0.08300
C343        C  0.77140412  0.37383745  0.09659211     0.05200
C344        C  0.79230627  0.37571490  0.13305501    -0.09400
C345        C  0.79696733  0.34582736  0.14455735     0.00200
C346        C  0.77991927  0.31254708  0.11965092     0.00100
C347        C  0.75724238  0.30982496  0.08443135    -0.12900
C348        C  0.75311422  0.34026737  0.07254369     0.00600
C349        C  0.81850491  0.34992721  0.18308159     0.39900
C350        C  0.73101610  0.33682501  0.03488833     0.36500
C351        C  0.84039367  0.44101163  0.07289334     0.36200
C352        C  0.70344389  0.44124043  0.06771632     0.37000
N353        N  0.83577183  0.35322512  0.21390709    -0.43800
N354        N  0.71324890  0.33402962  0.00472166    -0.44300
N355        N  0.67511305  0.44020043  0.06628925    -0.41600
N356        N  0.86826427  0.44107079  0.07288979    -0.43100
H357        H  0.83210144  0.49761306  0.05321585     0.13100
H358        H  0.71263947  0.38500523  0.09005660     0.09600
H359        H  0.80569917  0.40112719  0.15225708     0.10700
H360        H  0.74331835  0.28418224  0.06574512     0.16500
C361        C  0.80466175  0.15364511  0.97803240    -0.01700
C362        C  0.82430082  0.18790534  0.95594870     0.06900
C363        C  0.83984556  0.22118529  0.97983767    -0.07700
C364        C  0.83352138  0.22088697  0.02437817     0.04300
C365        C  0.81163648  0.18675374  0.04601145    -0.14900
C366        C  0.79869902  0.15327592  0.02291899    -0.08300
C367        C  0.82323071  0.19024343  0.90791461     0.05200
C368        C  0.78891997  0.18002105  0.88844939    -0.09400
C369        C  0.78664088  0.18719315  0.84469783     0.00200
C370        C  0.81914148  0.20449176  0.81919389     0.00100
C371        C  0.85330099  0.21299457  0.83794906    -0.12900
C372        C  0.85564945  0.20653541  0.88220858     0.00600
C373        C  0.75054858  0.17673809  0.82679760     0.39900
C374        C  0.89159768  0.21754881  0.90073503     0.36500
C375        C  0.78914253  0.11868996  0.95486693     0.36200
C376        C  0.84837965  0.25615275  0.04685817     0.37000
N377        N  0.72165186  0.16840025  0.81248894    -0.43800
N378        N  0.92049873  0.22650050  0.91546967    -0.44300
N379        N  0.86027304  0.28448859  0.06464385    -0.41600
N380        N  0.77676731  0.09071627  0.93618243    -0.43100
H381        H  0.78194850  0.12697324  0.03931345     0.13100
H382        H  0.85486623  0.24760670  0.96313799     0.09600
H383        H  0.76394469  0.16779571  0.90804187     0.10700
H384        H  0.87834932  0.22621929  0.81853902     0.16500
C385        C  0.79494010  0.20957133  0.39153287    -0.01700
C386        C  0.81797686  0.19744286  0.40999407     0.06900
C387        C  0.84220808  0.19204917  0.38329252    -0.07700
C388        C  0.84413239  0.19926822  0.33854014     0.04300
C389        C  0.82161357  0.21242006  0.32009947    -0.14900
C390        C  0.79698603  0.21699938  0.34733456    -0.08300
C391        C  0.81829567  0.19322241  0.45766280     0.05200
C392        C  0.79620245  0.15802223  0.47644458    -0.09400
C393        C  0.78850310  0.15472370  0.52109506     0.00200
C394        C  0.80246673  0.18710538  0.54696505     0.00100
C395        C  0.82622349  0.22189934  0.52847442    -0.12900
C396        C  0.83476076  0.22511451  0.48444956     0.00600
C397        C  0.76408346  0.11838684  0.53894155     0.39900
C398        C  0.85867853  0.26173256  0.46686992     0.36500
C399        C  0.76903021  0.21486575  0.41757050     0.36200
C400        C  0.86996467  0.19372609  0.31285458     0.37000
N401        N  0.74459770  0.08922383  0.55327116    -0.43800
N402        N  0.87791840  0.29106304  0.45281174    -0.44300
N403        N  0.89068745  0.18920089  0.29235241    -0.41600
N404        N  0.74834551  0.21908717  0.43853571    -0.43100
H405        H  0.77884675  0.22631806  0.33413303     0.13100
H406        H  0.86009438  0.18286847  0.39756759     0.09600
H407        H  0.78325991  0.13344724  0.45587732     0.10700
H408        H  0.83685909  0.24690259  0.54819885     0.16500
C409        C  0.65335536  0.24257939  0.78289480    -0.01700
C410        C  0.62404318  0.22907267  0.75238561     0.06900
C411        C  0.62797121  0.21541588  0.71250741    -0.07700
C412        C  0.66002369  0.21412760  0.70287829     0.04300
C413        C  0.68964827  0.22768345  0.73318129    -0.14900
C414        C  0.68627968  0.24244273  0.77278884    -0.08300
C415        C  0.58840779  0.22781688  0.76120015     0.05200
C416        C  0.58759601  0.26113428  0.76319517    -0.09400
C417        C  0.55408131  0.26089148  0.76947614     0.00200
C418        C  0.52042063  0.22653742  0.77448810     0.00100
C419        C  0.52148870  0.19321403  0.77116353    -0.12900
C420        C  0.55492675  0.19361289  0.76447854     0.00600
C421        C  0.55560956  0.29643060  0.77134943     0.39900
C422        C  0.55433290  0.15852449  0.76197256     0.36500
C423        C  0.64927804  0.25452582  0.82548015     0.36200
C424        C  0.66173396  0.19893287  0.66125517     0.37000
N425        N  0.55701737  0.32500273  0.77277421    -0.43800
N426        N  0.55392115  0.13045785  0.75976684    -0.44300
N427        N  0.66297767  0.18646332  0.62810886    -0.41600
N428        N  0.64572520  0.26354786  0.85983489    -0.43100
H429        H  0.70869324  0.25254995  0.79628985     0.13100
H430        H  0.60552533  0.20517594  0.68898364     0.09600
H431        H  0.61328945  0.28744024  0.75960060     0.10700
H432        H  0.49619728  0.16657333  0.77477368     0.16500
C433        C  0.58677158  0.33840440  0.89124902    -0.01700
C434        C  0.58957801  0.37074558  0.91020886     0.06900
C435        C  0.55693059  0.37060821  0.92241892    -0.07700
C436        C  0.52186752  0.33933424  0.91483430     0.04300
C437        C  0.51912553  0.30707279  0.89570313    -0.14900
C438        C  0.55185115  0.30669561  0.88529173    -0.08300
C439        C  0.62603308  0.40550758  0.91604067     0.05200
C440        C  0.63138254  0.43861159  0.89720718    -0.09400
C441        C  0.66427702  0.47247879  0.90425063     0.00200
C442        C  0.69310485  0.47333978  0.92931811     0.00100
C443        C  0.68836244  0.43998632  0.94659643    -0.12900
C444        C  0.65485733  0.40648026  0.94126700     0.00600
C445        C  0.66743610  0.50600451  0.88621534     0.39900
C446        C  0.64961460  0.37431460  0.96506299     0.36500
C447        C  0.61898733  0.33802895  0.87439930     0.36200
C448        C  0.48917276  0.34123126  0.92633534     0.37000
N449        N  0.66974650  0.53280155  0.87184708    -0.43800
N450        N  0.64527145  0.34857286  0.98431508    -0.44300
N451        N  0.46290533  0.34269178  0.93533916    -0.41600
N452        N  0.64489860  0.33799162  0.86079278    -0.43100
H453        H  0.55011559  0.28253445  0.86939559     0.13100
H454        H  0.55884873  0.39530764  0.93700853     0.09600
H455        H  0.60935214  0.43812925  0.87786766     0.10700
H456        H  0.70979159  0.44059688  0.96726018     0.16500
C457        C  0.57921368  0.22434094  0.30254316    -0.01700
C458        C  0.59625216  0.23450978  0.26163431     0.06900
C459        C  0.57986758  0.24531523  0.22905230    -0.07700
C460        C  0.54656775  0.24546433  0.23672278     0.04300
C461        C  0.52913585  0.23417969  0.27732926    -0.14900
C462        C  0.54596946  0.22403508  0.30987903    -0.08300
C463        C  0.63041955  0.23273436  0.25224915     0.05200
C464        C  0.62898208  0.19823639  0.25475069    -0.09400
C465        C  0.66040784  0.19512846  0.24617213     0.00200
C466        C  0.69413377  0.22699954  0.23414892     0.00100
C467        C  0.69576402  0.26174656  0.23310532    -0.12900
C468        C  0.66435838  0.26480581  0.24206087     0.00600
C469        C  0.65732246  0.15903875  0.25071229     0.39900
C470        C  0.66769070  0.30116397  0.24112236     0.36500
C471        C  0.59566230  0.21477531  0.33784357     0.36200
C472        C  0.53001966  0.25553247  0.20211220     0.37000
N473        N  0.65489422  0.13015758  0.25456275    -0.43800
N474        N  0.67029041  0.33027427  0.24049559    -0.44300
N475        N  0.51673741  0.26348480  0.17422956    -0.41600
N476        N  0.60881825  0.20715291  0.36617167    -0.43100
H477        H  0.53315133  0.21608592  0.34157983     0.13100
H478        H  0.59279035  0.25301505  0.19743147     0.09600
H479        H  0.60305770  0.17355769  0.26332370     0.10700
H480        H  0.72135902  0.28654848  0.22395516     0.16500
C481        C  0.63427695  0.45698790  0.41288691    -0.01700
C482        C  0.63557604  0.42760257  0.39156790     0.06900
C483        C  0.67007389  0.43155796  0.38021339    -0.07700
C484        C  0.70329241  0.46363547  0.39229440     0.04300
C485        C  0.70188603  0.49215516  0.41579881    -0.14900
C486        C  0.66728160  0.48894322  0.42466815    -0.08300
C487        C  0.60098157  0.39180886  0.38389383     0.05200
C488        C  0.57720733  0.38971139  0.35066993    -0.09400
C489        C  0.54234538  0.35795520  0.34528469     0.00200
C490        C  0.53054292  0.32736565  0.37390971     0.00100
C491        C  0.55495321  0.32919195  0.40653646    -0.12900
C492        C  0.58984928  0.36133083  0.41198033     0.00600
C493        C  0.51999674  0.35730161  0.30902259     0.39900
C494        C  0.61332276  0.36324274  0.44753437     0.36500
C495        C  0.59937038  0.45368489  0.42589753     0.36200
C496        C  0.73816345  0.46506670  0.38403175     0.37000
N497        N  0.50205180  0.35687181  0.28010076    -0.43800
N498        N  0.63233858  0.36524949  0.47604164    -0.44300
N499        N  0.76618529  0.46627520  0.37770314    -0.41600
N500        N  0.57131429  0.45074817  0.43642741    -0.43100
H501        H  0.66603950  0.51057151  0.44325629     0.13100
H502        H  0.67099510  0.40886872  0.36378131     0.09600
H503        H  0.58582047  0.41325077  0.32918619     0.10700
H504        H  0.54651262  0.30582551  0.42820931     0.16500
C505        C  0.34826651  0.16268796  0.53154805    -0.01700
C506        C  0.36342039  0.19657459  0.55518890     0.06900
C507        C  0.38359509  0.23024927  0.53276904    -0.07700
C508        C  0.39018139  0.23064534  0.48832657     0.04300
C509        C  0.37711295  0.19686947  0.46527149    -0.14900
C510        C  0.35510043  0.16308166  0.48683664    -0.08300
C511        C  0.36236235  0.19791058  0.60357801     0.05200
C512        C  0.37815531  0.18053126  0.62741827    -0.09400
C513        C  0.38347493  0.18587206  0.67223260     0.00200
C514        C  0.37261346  0.20878092  0.69436635     0.00100
C515        C  0.35510591  0.22470335  0.67115235    -0.12900
C516        C  0.35024983  0.21977025  0.62603174     0.00600
C517        C  0.40107876  0.16823780  0.69464308     0.39900
C518        C  0.33395490  0.23845907  0.60328598     0.36500
C519        C  0.32625668  0.12724000  0.55261182     0.36200
C520        C  0.41072598  0.26620747  0.46694357     0.37000
N521        N  0.41524838  0.15405706  0.71229112    -0.43800
N522        N  0.32125120  0.25372996  0.58492986    -0.44300
N523        N  0.42701248  0.29457955  0.44958117    -0.41600
N524        N  0.30867955  0.09883226  0.56954269    -0.43100
H525        H  0.34474553  0.13702076  0.46926670     0.13100
H526        H  0.39555824  0.25645536  0.55037456     0.09600
H527        H  0.38808877  0.16416373  0.61064967     0.10700
H528        H  0.34697656  0.24255907  0.68789622     0.16500
C529        C  0.34521279  0.16481218  0.13522108    -0.01700
C530        C  0.36225682  0.19154732  0.10234751     0.06900
C531        C  0.38519327  0.22909512  0.11373240    -0.07700
C532        C  0.39283183  0.24000976  0.15723634     0.04300
C533        C  0.37703091  0.21305852  0.19025464    -0.14900
C534        C  0.35241865  0.17575991  0.17885652    -0.08300
C535        C  0.36020753  0.18087666  0.05608689     0.05200
C536        C  0.33784896  0.18724617  0.02730223    -0.09400
C537        C  0.34035010  0.18347721  0.98234832     0.00200
C538        C  0.36594370  0.17351740  0.96585222     0.00100
C539        C  0.38632536  0.16476604  0.99507564    -0.12900
C540        C  0.38388815  0.16860206  0.03972112     0.00600
C541        C  0.31865278  0.19293060  0.95412266     0.39900
C542        C  0.40836133  0.16288212  0.06782024     0.36500
C543        C  0.32136134  0.12591118  0.12483702     0.36200
C544        C  0.41707061  0.27899269  0.16717999     0.37000
N545        N  0.30104576  0.20052674  0.93186597    -0.43800
N546        N  0.42824547  0.15855845  0.09013833    -0.44300
N547        N  0.43639016  0.31023605  0.17516957    -0.41600
N548        N  0.30223099  0.09470819  0.11653228    -0.43100
H549        H  0.34039925  0.15484644  0.20397599     0.13100
H550        H  0.39830782  0.24972172  0.08846594     0.09600
H551        H  0.31974913  0.19689334  0.03988140     0.10700
H552        H  0.40607655  0.15711531  0.98281475     0.16500
C553        C  0.04185266  0.33287306  0.59911495    -0.01700
C554        C  0.01813574  0.34736094  0.59122270     0.06900
C555        C  0.02776387  0.37453662  0.55914846    -0.07700
C556        C  0.06045799  0.38722428  0.53493162     0.04300
C557        C  0.08427436  0.37270831  0.54282894    -0.14900
C558        C  0.07448618  0.34551462  0.57497426    -0.08300
C559        C  0.98062245  0.33012451  0.61116702     0.05200
C560        C  0.97620006  0.33740084  0.65466740    -0.09400
C561        C  0.94125505  0.31787139  0.67502439     0.00200
C562        C  0.91036112  0.29016761  0.65178811     0.00100
C563        C  0.91497659  0.28422920  0.60783859    -0.12900
C564        C  0.94944245  0.30385253  0.58755545     0.00600
C565        C  0.93833852  0.32526834  0.72011960     0.39900
C566        C  0.95259420  0.29518876  0.54291122     0.36500
C567        C  0.03255702  0.30406390  0.63083059     0.36200
C568        C  0.06799748  0.41383345  0.50091003     0.37000
N569        N  0.93584388  0.33109074  0.75629492    -0.43800
N570        N  0.95537490  0.28837301  0.50719820    -0.44300
N571        N  0.07406964  0.43527849  0.47377354    -0.41600
N572        N  0.02500618  0.28093202  0.65621556    -0.43100
H573        H  0.09259269  0.33432324  0.58154349     0.13100
H574        H  0.00906224  0.38497225  0.55213367     0.09600
H575        H  0.00021991  0.35759022  0.67296199     0.10700
H576        H  0.89165780  0.26336822  0.58930008     0.16500
C577        C  0.32353170  0.38603332  0.41769166    -0.01700
C578        C  0.31917168  0.35074836  0.42673008     0.06900
C579        C  0.29934419  0.33183760  0.46393633    -0.07700
C580        C  0.28198287  0.34626610  0.49028672     0.04300
C581        C  0.28488888  0.38085831  0.48027311    -0.14900
C582        C  0.30696172  0.40096642  0.44473503    -0.08300
C583        C  0.33439533  0.33246908  0.39792642     0.05200
C584        C  0.37288188  0.34967840  0.39085587    -0.09400
C585        C  0.38838656  0.33115615  0.36837756     0.00200
C586        C  0.36520365  0.29453845  0.35260274     0.00100
C587        C  0.32657636  0.27811722  0.35798005    -0.12900
C588        C  0.31110615  0.29673913  0.37999004     0.00600
C589        C  0.42829552  0.34929099  0.36550957     0.39900
C590        C  0.27119168  0.27839803  0.38428433     0.36500
C591        C  0.34301864  0.40649409  0.37954692     0.36200
C592        C  0.26161988  0.32493160  0.52753893     0.37000
N593        N  0.46039166  0.36449488  0.36406492    -0.43800
N594        N  0.23923393  0.26383116  0.38790857    -0.44300
N595        N  0.24533663  0.30773959  0.55738010    -0.41600
N596        N  0.35853365  0.42279952  0.34888512    -0.43100
H597        H  0.30987167  0.42753256  0.43695365     0.13100
H598        H  0.29679941  0.30533911  0.47191295     0.09600
H599        H  0.39105781  0.37700682  0.40469862     0.10700
H600        H  0.30839300  0.25006907  0.34591888     0.16500
C601        C  0.21919085  0.41560837  0.72226342    -0.01700
C602        C  0.18966828  0.38327169  0.74068322     0.06900
C603        C  0.16556308  0.35370528  0.71369843    -0.07700
C604        C  0.17071749  0.35576685  0.66873135     0.04300
C605        C  0.20041651  0.38821650  0.65010898    -0.14900
C606        C  0.22445790  0.41771315  0.67746807    -0.08300
C607        C  0.18424250  0.37981681  0.78819199     0.05200
C608        C  0.15328546  0.37974852  0.80637633    -0.09400
C609        C  0.14989114  0.38105469  0.85141987     0.00200
C610        C  0.17811390  0.38297650  0.87869010     0.00100
C611        C  0.20754777  0.38021131  0.86044816    -0.12900
C612        C  0.21063029  0.37837985  0.81556745     0.00600
C613        C  0.11687901  0.37938410  0.86896897     0.39900
C614        C  0.24128482  0.37542027  0.79814789     0.36500
C615        C  0.24389206  0.44738177  0.74863817     0.36200
C616        C  0.14584632  0.32368866  0.64293051     0.37000
N617        N  0.09026239  0.37753162  0.88323742    -0.43800
N618        N  0.26569966  0.37291075  0.78394816    -0.44300
N619        N  0.12594930  0.29780710  0.62246628    -0.41600
N620        N  0.26368732  0.47279630  0.76979887    -0.43100
H621        H  0.24694419  0.44303985  0.66376228     0.13100
H622        H  0.14296962  0.32873127  0.72792948     0.09600
H623        H  0.13231441  0.37961530  0.78536987     0.10700
H624        H  0.22902009  0.38101439  0.88117355     0.16500
C625        C  0.21636335  0.38872674  0.22654589    -0.01700
C626        C  0.18224949  0.35928634  0.24153031     0.06900
C627        C  0.15427274  0.33769334  0.21137051    -0.07700
C628        C  0.15960073  0.34544455  0.16688077     0.04300
C629        C  0.19381879  0.37533493  0.15189462    -0.14900
C630        C  0.22201705  0.39597391  0.18233881    -0.08300
C631        C  0.17399187  0.35443227  0.28861179     0.05200
C632        C  0.14668527  0.36171126  0.30456462    -0.09400
C633        C  0.14380756  0.36660337  0.34895921     0.00200
C634        C  0.16907209  0.36479880  0.37819619     0.00100
C635        C  0.19365255  0.35344873  0.36253348    -0.12900
C636        C  0.19603522  0.34793895  0.31814114     0.00600
C637        C  0.11502314  0.37392661  0.36340407     0.39900
C638        C  0.22225209  0.33706007  0.30349691     0.36500
C639        C  0.24506766  0.41398987  0.25596195     0.36200
C640        C  0.12913702  0.32280494  0.13791425     0.37000
N641        N  0.09183636  0.37959557  0.37502374    -0.43800
N642        N  0.24327585  0.32832815  0.29188547    -0.44300
N643        N  0.10458890  0.30468606  0.11483826    -0.41600
N644        N  0.26814445  0.43447856  0.27927301    -0.43100
H645        H  0.24834360  0.41928754  0.17189951     0.13100
H646        H  0.12770612  0.31535439  0.22283942     0.09600
H647        H  0.12891549  0.36567972  0.28205591     0.10700
H648        H  0.21253537  0.35085752  0.38464229     0.16500
C649        C  0.96107550  0.34721087  0.11605651    -0.01700
C650        C  0.98537632  0.33295161  0.11136078     0.06900
C651        C  0.97663475  0.29925431  0.13126690    -0.07700
C652        C  0.94329505  0.27876200  0.15380451     0.04300
C653        C  0.91805044  0.29207647  0.15696173    -0.14900
C654        C  0.92773550  0.32686163  0.13909610    -0.08300
C655        C  0.01998402  0.35225004  0.08550172     0.05200
C656        C  0.05050187  0.38440570  0.10237194    -0.09400
C657        C  0.08496415  0.40095932  0.08138354     0.00200
C658        C  0.08933664  0.38492132  0.04279401     0.00100
C659        C  0.05826663  0.35341033  0.02523877    -0.12900
C660        C  0.02369498  0.33734113  0.04593075     0.00600
C661        C  0.11562183  0.43265689  0.10222322     0.39900
C662        C  0.99224850  0.30580576  0.02582719     0.36500
C663        C  0.96881479  0.38141844  0.09520691     0.36200
C664        C  0.93537149  0.24389459  0.17314391     0.37000
N665        N  0.13947039  0.45787654  0.12012004    -0.43800
N666        N  0.96692366  0.28078094  0.00952332    -0.44300
N667        N  0.92889341  0.21594952  0.18869657    -0.41600
N668        N  0.97515894  0.40876593  0.07816634    -0.43100
H669        H  0.90826482  0.33700941  0.14080614     0.13100
H670        H  0.99563017  0.28858675  0.12838528     0.09600
H671        H  0.04767655  0.39584407  0.13287462     0.10700
H672        H  0.06108576  0.34112132  0.99540969     0.16500
C673        C  0.35291628  0.31137900  0.93734032    -0.01700
C674        C  0.34196312  0.33387550  0.91504393     0.06900
C675        C  0.34689127  0.33774067  0.86989677    -0.07700
C676        C  0.36063962  0.31782780  0.84672982     0.04300
C677        C  0.36949557  0.29360121  0.86895570    -0.14900
C678        C  0.36654852  0.29164481  0.91434807    -0.08300
C679        C  0.32165071  0.34993197  0.93805516     0.05200
C680        C  0.34037970  0.38742969  0.95091398    -0.09400
C681        C  0.32224175  0.40247130  0.97509546     0.00200
C682        C  0.28427898  0.37974747  0.98666714     0.00100
C683        C  0.26585975  0.34207500  0.97349541    -0.12900
C684        C  0.28409985  0.32719071  0.94965577     0.00600
C685        C  0.34375282  0.44103518  0.98811810     0.39900
C686        C  0.26375246  0.28831111  0.93738021     0.36500
C687        C  0.34885606  0.30684918  0.98372817     0.36200
C688        C  0.36277080  0.32053941  0.80013946     0.37000
N689        N  0.36136674  0.47192109  0.99861488    -0.43800
N690        N  0.24770545  0.25715950  0.92755764    -0.44300
N691        N  0.36442801  0.32253558  0.76275485    -0.41600
N692        N  0.34543480  0.30313659  0.02087035    -0.43100
H693        H  0.37390810  0.27368448  0.93186829     0.13100
H694        H  0.33838915  0.35490532  0.85259228     0.09600
H695        H  0.36948028  0.40486927  0.94259577     0.10700
H696        H  0.23677948  0.32399498  0.98137398     0.16500
C697        C  0.66812169  0.96069531  0.75327019    -0.01700
C698        C  0.64923192  0.98088132  0.75632853     0.06900
C699        C  0.61487685  0.96477286  0.77765746    -0.07700
C700        C  0.59954726  0.92922150  0.79648066     0.04300
C701        C  0.61911034  0.90936066  0.79470407    -0.14900
C702        C  0.65318109  0.92553726  0.77242197    -0.08300
C703        C  0.66728410  0.02024962  0.74143070     0.05200
C704        C  0.66187129  0.02852619  0.69888872    -0.09400
C705        C  0.68282064  0.06497010  0.68255073     0.00200
C706        C  0.71060220  0.09351594  0.70865314     0.00100
C707        C  0.71439825  0.08523649  0.75189091    -0.12900
C708        C  0.69284264  0.04927641  0.76840642     0.00600
C709        C  0.67605526  0.07190035  0.63865908     0.39900
C710        C  0.69791384  0.04252628  0.81305448     0.36500
C711        C  0.70328783  0.97589001  0.73107252     0.36200
C712        C  0.56450556  0.91464032  0.81872320     0.37000
N713        N  0.67045103  0.07764291  0.60361593    -0.43800
N714        N  0.70170115  0.03704348  0.84889244    -0.44300
N715        N  0.53640356  0.90317268  0.83651627    -0.41600
N716        N  0.73143882  0.98815121  0.71322017    -0.43100
H717        H  0.66823534  0.91051621  0.76959655     0.13100
H718        H  0.60041613  0.98038492  0.78044152     0.09600
H719        H  0.64195718  0.00631211  0.67812023     0.10700
H720        H  0.73471664  0.10689498  0.77291962     0.16500
C721        C  0.67265510  0.69937922  0.84613304    -0.01700
C722        C  0.65250716  0.67090450  0.87659151     0.06900
C723        C  0.61572704  0.66153494  0.88567960    -0.07700
C724        C  0.59918090  0.68008167  0.86551360     0.04300
C725        C  0.61939027  0.70857338  0.83481343    -0.14900
C726        C  0.65598668  0.71738636  0.82538494    -0.08300
C727        C  0.67029058  0.65264671  0.90118328     0.05200
C728        C  0.67213702  0.65499860  0.94675104    -0.09400
C729        C  0.69240281  0.64215028  0.97054928     0.00200
C730        C  0.71200750  0.62739030  0.94871230     0.00100
C731        C  0.70880206  0.62351320  0.90343635    -0.12900
C732        C  0.68732986  0.63484902  0.87986002     0.00600
C733        C  0.69448469  0.64632056  0.01705954     0.39900
C734        C  0.68267427  0.62740927  0.83387407     0.36500
C735        C  0.71133823  0.71235071  0.83741526     0.36200
C736        C  0.56262799  0.67106671  0.87990973     0.37000
N737        N  0.69628336  0.64954617  0.05437193    -0.43800
N738        N  0.67871847  0.62148661  0.79702324    -0.44300
N739        N  0.53353637  0.66346660  0.89270703    -0.41600
N740        N  0.74231434  0.72260309  0.83039656    -0.43100
H741        H  0.67226281  0.73945724  0.80260673     0.13100
H742        H  0.60014970  0.64023281  0.90953374     0.09600
H743        H  0.65874989  0.66805807  0.96371145     0.10700
H744        H  0.72305358  0.61137895  0.88640124     0.16500
C745        C  0.41886259  0.65659934  0.92272939    -0.01700
C746        C  0.40550804  0.62212292  0.90115050     0.06900
C747        C  0.42501334  0.61950211  0.86587338    -0.07700
C748        C  0.45707182  0.65081002  0.85100641     0.04300
C749        C  0.47014736  0.68598953  0.87159777    -0.14900
C750        C  0.45107325  0.68823427  0.90794054    -0.08300
C751        C  0.37205520  0.58798037  0.91607969     0.05200
C752        C  0.33863234  0.57372661  0.89261034    -0.09400
C753        C  0.30588288  0.54276588  0.90783965     0.00200
C754        C  0.30667982  0.52563220  0.94695348     0.00100
C755        C  0.34092520  0.53907839  0.96874043    -0.12900
C756        C  0.37326549  0.56984700  0.95374789     0.00600
C757        C  0.27184850  0.53073253  0.88396992     0.39900
C758        C  0.40727309  0.58273593  0.97813076     0.36500
C759        C  0.39925986  0.66010721  0.95937463     0.36200
C760        C  0.47623970  0.64558686  0.81495112     0.37000
N761        N  0.24462236  0.52125508  0.86473880    -0.43800
N762        N  0.43444693  0.59307888  0.99777379    -0.44300
N763        N  0.49165022  0.64142822  0.78616789    -0.41600
N764        N  0.38329574  0.66253551  0.98873356    -0.43100
H765        H  0.46051059  0.71489468  0.92383780     0.13100
H766        H  0.41516655  0.59272278  0.84999462     0.09600
H767        H  0.33792774  0.58743751  0.86339495     0.10700
H768        H  0.34238733  0.52629340  0.99844411     0.16500
C769        C  0.65889171  0.03816849  0.21827691    -0.01700
C770        C  0.67406752  0.01921462  0.24056395     0.06900
C771        C  0.71265374  0.03635145  0.24527480    -0.07700
C772        C  0.73624961  0.07182554  0.22840311     0.04300
C773        C  0.72127182  0.09140271  0.20634737    -0.14900
C774        C  0.68244095  0.07392307  0.20137377    -0.08300
C775        C  0.65100159  0.98015306  0.25585369     0.05200
C776        C  0.64076950  0.95124160  0.22576387    -0.09400
C777        C  0.62447258  0.91410892  0.23916983     0.00200
C778        C  0.61741888  0.90509601  0.28361087     0.00100
C779        C  0.62579934  0.93394133  0.31354219    -0.12900
C780        C  0.64307261  0.97130928  0.30010807     0.00600
C781        C  0.61552570  0.88585887  0.20648280     0.39900
C782        C  0.65375305  0.00022201  0.33238232     0.36500
C783        C  0.61924298  0.02160317  0.21292007     0.36200
C784        C  0.77579846  0.08655219  0.23300586     0.37000
N785        N  0.60840914  0.86337243  0.18008949    -0.43800
N786        N  0.66246060  0.02337104  0.35833591    -0.44300
N787        N  0.80742551  0.09810057  0.23674908    -0.41600
N788        N  0.58742820  0.00835501  0.20873149    -0.43100
H789        H  0.67038796  0.08843377  0.18493542     0.13100
H790        H  0.72445992  0.02149609  0.26151399     0.09600
H791        H  0.64697229  0.95790154  0.19175351     0.10700
H792        H  0.62067484  0.92751936  0.34771279     0.16500
C793        C  0.67008467  0.62652005  0.42090687    -0.01700
C794        C  0.68143629  0.66473752  0.42055954     0.06900
C795        C  0.71288877  0.68944727  0.44486810    -0.07700
C796        C  0.73369705  0.67692993  0.46802653     0.04300
C797        C  0.72328082  0.63869050  0.46705105    -0.14900
C798        C  0.69094467  0.61392287  0.44368200    -0.08300
C799        C  0.66016233  0.67944556  0.39665805     0.05200
C800        C  0.64120675  0.69355808  0.42055170    -0.09400
C801        C  0.62258981  0.70956927  0.39983630     0.00200
C802        C  0.62281336  0.71201076  0.35414832     0.00100
C803        C  0.64063674  0.69674314  0.33001964    -0.12900
C804        C  0.65937314  0.68068791  0.35086702     0.00600
C805        C  0.60293454  0.72291710  0.42623144     0.39900
C806        C  0.67915297  0.66740988  0.32469005     0.36500
C807        C  0.63656065  0.59955654  0.39895697     0.36200
C808        C  0.76510662  0.70405977  0.49298400     0.37000
N809        N  0.58689047  0.73322406  0.44742285    -0.43800
N810        N  0.69501662  0.65683734  0.30357984    -0.44300
N811        N  0.79014122  0.72596080  0.51306044    -0.41600
N812        N  0.60957269  0.57793350  0.38154614    -0.43100
H813        H  0.68204484  0.58449533  0.44256403     0.13100
H814        H  0.72130138  0.71876748  0.44562561     0.09600
H815        H  0.64122593  0.69232252  0.45563579     0.10700
H816        H  0.64142370  0.69892407  0.29500997     0.16500
C817        C  0.40088279  0.63261586  0.34944317    -0.01700
C818        C  0.39067573  0.62293035  0.39300963     0.06900
C819        C  0.41587781  0.64452512  0.42601959    -0.07700
C820        C  0.45055827  0.67552938  0.41599004     0.04300
C821        C  0.46082744  0.68438897  0.37239335    -0.14900
C822        C  0.43604435  0.66245294  0.33957050    -0.08300
C823        C  0.35424784  0.58995346  0.40453613     0.05200
C824        C  0.34503570  0.55457486  0.38816387    -0.09400
C825        C  0.31215235  0.52257772  0.40064993     0.00200
C826        C  0.28853044  0.52564687  0.43082226     0.00100
C827        C  0.29671601  0.56104812  0.44552410    -0.12900
C828        C  0.32895830  0.59312550  0.43219316     0.00600
C829        C  0.30401664  0.48678012  0.38380455     0.39900
C830        C  0.33554384  0.62888557  0.44753325     0.36500
C831        C  0.37509563  0.61340379  0.31444650     0.36200
C832        C  0.47525502  0.69754918  0.45063701     0.37000
N833        N  0.29714512  0.45805303  0.36998025    -0.43800
N834        N  0.34075004  0.65754451  0.45971875    -0.44300
N835        N  0.49506278  0.71528300  0.47838073    -0.41600
N836        N  0.35412230  0.59802249  0.28667646    -0.43100
H837        H  0.44396807  0.66914479  0.30592534     0.13100
H838        H  0.40841200  0.63715701  0.45963823     0.09600
H839        H  0.36408296  0.55182766  0.36659029     0.10700
H840        H  0.27858129  0.56345475  0.46892712     0.16500
C841        C  0.58936508  0.81557783  0.52543346    -0.01700
C842        C  0.62449305  0.82315171  0.54044324     0.06900
C843        C  0.65241170  0.82982254  0.51024082    -0.07700
C844        C  0.64564568  0.82912582  0.46545246     0.04300
C845        C  0.61037352  0.82182358  0.45052781    -0.14900
C846        C  0.58290858  0.81565964  0.48122187    -0.08300
C847        C  0.63109463  0.82227019  0.58760236     0.05200
C848        C  0.63458605  0.79273952  0.60427154    -0.09400
C849        C  0.63163766  0.78574372  0.64892394     0.00200
C850        C  0.62505183  0.80853918  0.67740673     0.00100
C851        C  0.62518402  0.84011415  0.66105456    -0.12900
C852        C  0.62814228  0.84711313  0.61654101     0.00600
C853        C  0.63548416  0.75516041  0.66484061     0.39900
C854        C  0.62581853  0.87867632  0.60097199     0.36500
C855        C  0.55869380  0.80566403  0.55468168     0.36200
C856        C  0.67458134  0.83398410  0.43584341     0.37000
N857        N  0.63892791  0.73092419  0.67782579    -0.43800
N858        N  0.62367401  0.90375932  0.58833315    -0.44300
N859        N  0.69775360  0.83775251  0.41212482    -0.41600
N860        N  0.53409674  0.79763495  0.57805213    -0.43100
H861        H  0.55551458  0.80961139  0.47067905     0.13100
H862        H  0.67926954  0.83497419  0.52167668     0.09600
H863        H  0.63754202  0.77395641  0.58223025     0.10700
H864        H  0.62067875  0.85810831  0.68277934     0.16500
C865        C  0.65000425  0.81930138  0.11955872    -0.01700
C866        C  0.62547081  0.79371096  0.08859333     0.06900
C867        C  0.59623805  0.75943061  0.10234708    -0.07700
C868        C  0.58926229  0.75148108  0.14641781     0.04300
C869        C  0.61189940  0.77832954  0.17793488    -0.14900
C870        C  0.64326485  0.81136383  0.16395145    -0.08300
C871        C  0.62658522  0.80325081  0.04216886     0.05200
C872        C  0.64160466  0.78925500  0.01191532    -0.09400
C873        C  0.63762435  0.79262747  0.96729927     0.00200
C874        C  0.61756447  0.80984988  0.95222158     0.00100
C875        C  0.60398141  0.82520064  0.98300537    -0.12900
C876        C  0.60833612  0.82203888  0.02747758     0.00600
C877        C  0.65336601  0.77685903  0.93826332     0.39900
C878        C  0.59216930  0.83661265  0.05762218     0.36500
C879        C  0.68130480  0.85432238  0.10639544     0.36200
C880        C  0.55814386  0.71573058  0.15813977     0.37000
N881        N  0.66632069  0.76438638  0.91524933    -0.43800
N882        N  0.57917796  0.84818125  0.08186824    -0.44300
N883        N  0.53315675  0.68708121  0.16736527    -0.41600
N884        N  0.70646775  0.88231527  0.09569138    -0.43100
H885        H  0.66115005  0.83205108  0.18759354     0.13100
H886        H  0.57770362  0.73945261  0.07846275     0.09600
H887        H  0.65547694  0.77459573  0.02325447     0.10700
H888        H  0.58889906  0.83885379  0.97244686     0.16500
C889        C  0.97894405  0.68267301  0.53648938    -0.01700
C890        C  0.98388401  0.66174051  0.56913988     0.06900
C891        C  0.95679037  0.62404476  0.57377316    -0.07700
C892        C  0.92433333  0.60774954  0.54825609     0.04300
C893        C  0.91801029  0.62968012  0.51800201    -0.14900
C894        C  0.94627330  0.66673828  0.51172511    -0.08300
C895        C  0.01599195  0.67966432  0.60000990     0.05200
C896        C  0.02162775  0.71122752  0.62343072    -0.09400
C897        C  0.05394789  0.73233646  0.64797481     0.00200
C898        C  0.08111470  0.72148109  0.65044407     0.00100
C899        C  0.07397926  0.68807082  0.63040858    -0.12900
C900        C  0.04184612  0.66723492  0.60513041     0.00600
C901        C  0.05898566  0.76553810  0.66955287     0.39900
C902        C  0.03742344  0.63468631  0.58263330     0.36500
C903        C  0.00686396  0.72085035  0.52799420     0.36200
C904        C  0.89760128  0.56895516  0.55535331     0.37000
N905        N  0.06285373  0.79207247  0.68685227    -0.43800
N906        N  0.03400344  0.60851913  0.56485775    -0.44300
N907        N  0.87655102  0.53774981  0.56100387    -0.41600
N908        N  0.02917332  0.75145771  0.52120252    -0.43100
H909        H  0.94247474  0.68379307  0.48806121     0.13100
H910        H  0.96037708  0.60758459  0.59844057     0.09600
H911        H  0.00132380  0.72028399  0.62108212     0.10700
H912        H  0.09483925  0.67967159  0.63183059     0.16500
C913        C  0.32180214  0.98681147  0.67680994    -0.01700
C914        C  0.32887771  0.99177214  0.72179197     0.06900
C915        C  0.31709483  0.96055090  0.74813583    -0.07700
C916        C  0.29559128  0.92466898  0.73112591     0.04300
C917        C  0.28579614  0.91953814  0.68669115    -0.14900
C918        C  0.30063325  0.95069233  0.65943112    -0.08300
C919        C  0.34172682  0.02819898  0.74341941     0.05200
C920        C  0.31582364  0.04009866  0.74857316    -0.09400
C921        C  0.32455157  0.07217660  0.77244782     0.00200
C922        C  0.36023890  0.09352485  0.79132633     0.00100
C923        C  0.38609040  0.08127025  0.78655901    -0.12900
C924        C  0.37702269  0.04875275  0.76297341     0.00600
C925        C  0.29565774  0.08142365  0.77859915     0.39900
C926        C  0.40437522  0.03722362  0.75879815     0.36500
C927        C  0.33449663  0.01848407  0.64852996     0.36200
C928        C  0.28271257  0.89358875  0.76044289     0.37000
N929        N  0.27231759  0.08854074  0.78366075    -0.43800
N930        N  0.42637149  0.02805201  0.75547766    -0.44300
N931        N  0.27246818  0.86883504  0.78410758    -0.41600
N932        N  0.34481170  0.04400209  0.62603027    -0.43100
H933        H  0.29356142  0.94701561  0.62523406     0.13100
H934        H  0.32259649  0.96430905  0.78272491     0.09600
H935        H  0.28822253  0.02359315  0.73476396     0.10700
H936        H  0.41367847  0.09753010  0.80044618     0.16500
C937        C  0.34128808  0.75935682  0.73212321    -0.01700
C938        C  0.37598298  0.78756190  0.71640570     0.06900
C939        C  0.37765810  0.81810476  0.69516884    -0.07700
C940        C  0.34621509  0.82169621  0.69028613     0.04300
C941        C  0.31112552  0.79334822  0.70564969    -0.14900
C942        C  0.30937089  0.76242177  0.72655180    -0.08300
C943        C  0.41135529  0.78713603  0.72313616     0.05200
C944        C  0.41460226  0.75655592  0.70895916    -0.09400
C945        C  0.44697919  0.75484976  0.71742498     0.00200
C946        C  0.47704661  0.78455781  0.73935735     0.00100
C947        C  0.47470261  0.81610097  0.75065395    -0.12900
C948        C  0.44226684  0.81745585  0.74346563     0.00600
C949        C  0.44751854  0.72122195  0.70670079     0.39900
C950        C  0.44062724  0.84914476  0.76042160     0.36500
C951        C  0.33755679  0.72708065  0.75424947     0.36200
C952        C  0.35138996  0.85466103  0.66831949     0.37000
N953        N  0.44794586  0.69421631  0.69830235    -0.43800
N954        N  0.43940609  0.87455857  0.77402608    -0.44300
N955        N  0.35584111  0.88115684  0.65070161    -0.41600
N956        N  0.33423443  0.70096261  0.77172390    -0.43100
H957        H  0.28288702  0.74024143  0.73817298     0.13100
H958        H  0.40403541  0.83958737  0.68231341     0.09600
H959        H  0.39135758  0.73343459  0.69256668     0.10700
H960        H  0.49747648  0.83873257  0.76834994     0.16500
C961        C  0.19467924  0.63361024  0.62954204    -0.01700
C962        C  0.21759542  0.63173525  0.59710981     0.06900
C963        C  0.23842224  0.66309501  0.57078422    -0.07700
C964        C  0.23689922  0.69595744  0.57677597     0.04300
C965        C  0.21287795  0.69713377  0.60829332    -0.14900
C966        C  0.19194899  0.66557914  0.63414226    -0.08300
C967        C  0.21810041  0.59647700  0.58911737     0.05200
C968        C  0.18398573  0.56349003  0.58311699    -0.09400
C969        C  0.18239664  0.52946904  0.57623500     0.00200
C970        C  0.21538667  0.52794524  0.57338282     0.00100
C971        C  0.24963492  0.56062056  0.57997994    -0.12900
C972        C  0.25125169  0.59478126  0.58805137     0.00600
C973        C  0.14640650  0.49634246  0.57270902     0.39900
C974        C  0.28716807  0.62758827  0.59452748     0.36500
C975        C  0.17459646  0.60359847  0.65978990     0.36200
C976        C  0.26003298  0.72779129  0.55016673     0.37000
N977        N  0.11730233  0.46999358  0.57096857    -0.43800
N978        N  0.31600701  0.65390030  0.59946912    -0.44300
N979        N  0.27879081  0.75341295  0.52905561    -0.41600
N980        N  0.15847562  0.57955270  0.68396615    -0.43100
H981        H  0.17433296  0.66628297  0.65960720     0.13100
H982        H  0.25580743  0.66188676  0.54540381     0.09600
H983        H  0.15832654  0.56432049  0.58356332     0.10700
H984        H  0.27518241  0.55978667  0.57672145     0.16500
C985        C  0.04558573  0.71641934  0.07342028    -0.01700
C986        C  0.01738988  0.68393468  0.09304626     0.06900
C987        C  0.02467657  0.67300542  0.13318911    -0.07700
C988        C  0.05905128  0.69441467  0.15435764     0.04300
C989        C  0.08700409  0.72784639  0.13539927    -0.14900
C990        C  0.07976015  0.73787249  0.09446727    -0.08300
C991        C  0.97915129  0.66351320  0.07415072     0.05200
C992        C  0.97275966  0.64492041  0.03415157    -0.09400
C993        C  0.93780791  0.62901335  0.01357951     0.00200
C994        C  0.90852897  0.63212728  0.03286629     0.00100
C995        C  0.91491993  0.64960234  0.07375881    -0.12900
C996        C  0.94957582  0.66504367  0.09430500     0.00600
C997        C  0.93341364  0.61089828  0.97221618     0.39900
C998        C  0.95475495  0.68385065  0.13536089     0.36500
C999        C  0.03958075  0.72924601  0.03243042     0.36200
C1000       C  0.06430604  0.68159838  0.19571211     0.37000
N1001       N  0.93003696  0.59629576  0.93912193    -0.43800
N1002       N  0.95957363  0.69901099  0.16830863    -0.44300
N1003       N  0.06849449  0.67122095  0.22881984    -0.41600
N1004       N  0.03476848  0.73949957  0.99957497    -0.43100
H1005       H  0.10074675  0.76296411  0.07875048     0.13100
H1006       H  0.00304905  0.64802890  0.14847893     0.09600
H1007       H  0.99540604  0.64352838  0.01855770     0.10700
H1008       H  0.89284296  0.65173370  0.08972714     0.16500
C1009       C  0.37018946  0.06520380  0.23895215    -0.01700
C1010       C  0.35175164  0.03251157  0.26375578     0.06900
C1011       C  0.35065162  0.03545906  0.30908210    -0.07700
C1012       C  0.36552951  0.07043677  0.32947941     0.04300
C1013       C  0.38100643  0.10294409  0.30414188    -0.14900
C1014       C  0.38430700  0.09997231  0.25918011    -0.08300
C1015       C  0.32907664  0.99550759  0.24263429     0.06400
C1016       C  0.34619395  0.97680590  0.22453548    -0.09400
C1017       C  0.32492170  0.94153931  0.20498095     0.00200
C1018       C  0.28564049  0.92441586  0.20343743     0.00100
C1019       C  0.26898499  0.94408383  0.22050774    -0.12900
C1020       C  0.29019541  0.97916114  0.23973312     0.00600
C1021       C  0.34416380  0.92330446  0.18822266     0.39900
C1022       C  0.27143086  0.99813777  0.25588308     0.36500
C1023       C  0.37289987  0.06371522  0.19244266     0.36200
C1024       C  0.36208899  0.07210869  0.37582402     0.37000
N1025       N  0.35975100  0.90883453  0.17478605    -0.43800
N1026       N  0.25643229  0.01340500  0.26869142    -0.44300
N1027       N  0.35946063  0.07351709  0.41300567    -0.41600
N1028       N  0.37525626  0.06265388  0.15518049    -0.43100
H1029       H  0.39657742  0.12493173  0.23951950     0.13100
H1030       H  0.33657210  0.01033224  0.32828365     0.09600
H1031       H  0.37619630  0.98961184  0.22618882     0.10700
H1032       H  0.23904444  0.93193776  0.21913983     0.16500
C1033       C  0.32961995  0.74503459  0.21983953    -0.01700
C1034       C  0.36086491  0.77040023  0.24413164     0.06900
C1035       C  0.35985452  0.79926362  0.26697593    -0.07700
C1036       C  0.32853587  0.80367052  0.26475371     0.04300
C1037       C  0.29734936  0.77837832  0.24018371    -0.14900
C1038       C  0.29790472  0.74856767  0.21904608    -0.08300
C1039       C  0.39491032  0.76733718  0.24578120     0.05200
C1040       C  0.42756736  0.79495686  0.22620031    -0.09400
C1041       C  0.46076557  0.79406410  0.22939300     0.00200
C1042       C  0.46158024  0.76535980  0.25280664     0.00100
C1043       C  0.42836959  0.73662870  0.27010349    -0.12900
C1044       C  0.39520699  0.73740903  0.26687886     0.00600
C1045       C  0.49368061  0.82277412  0.20846828     0.39900
C1046       C  0.36234582  0.70828156  0.28752941     0.36500
C1047       C  0.33078002  0.71716667  0.19274235     0.36200
C1048       C  0.32882844  0.83398064  0.28819525     0.37000
N1049       N  0.52005090  0.84551455  0.19139537    -0.43800
N1050       N  0.33599417  0.68486521  0.30392857    -0.44300
N1051       N  0.32911801  0.85817768  0.30733050    -0.41600
N1052       N  0.33246406  0.69546629  0.17063095    -0.43100
H1053       H  0.27442145  0.72943100  0.19935018     0.13100
H1054       H  0.38380666  0.81869049  0.28598638     0.09600
H1055       H  0.42719472  0.81747386  0.20895657     0.10700
H1056       H  0.42877544  0.71494356  0.28886440     0.16500
C1057       C  0.18351559  0.62822556  0.13918698    -0.01700
C1058       C  0.21504980  0.62757938  0.12382120     0.06900
C1059       C  0.24653309  0.66115532  0.11179462    -0.07700
C1060       C  0.24706711  0.69521720  0.11523550     0.04300
C1061       C  0.21521644  0.69591834  0.13040917    -0.14900
C1062       C  0.18364890  0.66190086  0.14181349    -0.08300
C1063       C  0.21360401  0.59172948  0.11439875     0.05200
C1064       C  0.18873395  0.56890701  0.08246017    -0.09400
C1065       C  0.18808912  0.53660662  0.06870561     0.00200
C1066       C  0.21346078  0.52667339  0.08641884     0.00100
C1067       C  0.23671717  0.54814389  0.12067674    -0.12900
C1068       C  0.23681901  0.58054348  0.13486396     0.00600
C1069       C  0.16129796  0.51471558  0.03552376     0.39900
C1070       C  0.26039226  0.60153833  0.17070416     0.36500
C1071       C  0.15098732  0.59469821  0.15372669     0.36200
C1072       C  0.28081781  0.72873808  0.10350247     0.37000
N1073       N  0.13969876  0.49763871  0.00891851    -0.43800
N1074       N  0.27887350  0.61795445  0.19994502    -0.44300
N1075       N  0.30808266  0.75555301  0.09450142    -0.41600
N1076       N  0.12501889  0.56789508  0.16564796    -0.43100
H1077       H  0.15907832  0.66149056  0.15440355     0.13100
H1078       H  0.27063974  0.66065614  0.09913062     0.09600
H1079       H  0.17029268  0.57700099  0.06723851     0.10700
H1080       H  0.25592858  0.54066721  0.13493493     0.16500
C1081       C  0.18629096  0.78473487  0.88238508    -0.01700
C1082       C  0.19062316  0.81826757  0.89939588     0.06900
C1083       C  0.18888038  0.84385584  0.87126452    -0.07700
C1084       C  0.18462978  0.83714553  0.82632918     0.04300
C1085       C  0.18219141  0.80431118  0.80904347    -0.14900
C1086       C  0.18224891  0.77811319  0.83776167    -0.08300
C1087       C  0.19973256  0.82769620  0.94597971     0.05200
C1088       C  0.23424391  0.83405911  0.96116491    -0.09400
C1089       C  0.24223730  0.83732221  0.00552161     0.00200
C1090       C  0.21549358  0.83472751  0.03576073     0.00100
C1091       C  0.18189000  0.83086105  0.02031686    -0.12900
C1092       C  0.17371062  0.82696307  0.97580313     0.00600
C1093       C  0.27785785  0.84262129  0.01905479     0.39900
C1094       C  0.13754213  0.81963173  0.96173777     0.36500
C1095       C  0.18640565  0.75686658  0.91019853     0.36200
C1096       C  0.18540349  0.86548713  0.79869487     0.37000
N1097       N  0.30635872  0.84674230  0.02982634    -0.43800
N1098       N  0.10848013  0.81360333  0.95047911    -0.44300
N1099       N  0.18611303  0.88827980  0.77657197    -0.41600
N1100       N  0.18648560  0.73461660  0.93260482    -0.43100
H1101       H  0.17988848  0.75253954  0.82520619     0.13100
H1102       H  0.19223665  0.86970119  0.88426817     0.09600
H1103       H  0.25445229  0.83495595  0.93825406     0.10700
H1104       H  0.16101164  0.82849085  0.04315791     0.16500
C1105       C  0.12932247  0.79989704  0.37107028    -0.01700
C1106       C  0.16139067  0.82319457  0.39596199     0.06900
C1107       C  0.19568647  0.84329013  0.37483140    -0.07700
C1108       C  0.19887350  0.83880549  0.33045141     0.04300
C1109       C  0.16739390  0.81378376  0.30610314    -0.14900
C1110       C  0.13253504  0.79537783  0.32635397    -0.08300
C1111       C  0.16149090  0.82286815  0.44430092     0.05200
C1112       C  0.15097260  0.78902428  0.46513454    -0.09400
C1113       C  0.15865254  0.78816879  0.50908619     0.00200
C1114       C  0.17733367  0.82170927  0.53317733     0.00100
C1115       C  0.18499011  0.85518995  0.51348864    -0.12900
C1116       C  0.17743935  0.85604335  0.46927300     0.00600
C1117       C  0.14808966  0.75255064  0.52845322     0.39900
C1118       C  0.18776657  0.89146938  0.44979391     0.36500
C1119       C  0.09317448  0.77961649  0.39102004     0.36200
C1120       C  0.23518391  0.85902080  0.31088034     0.37000
N1121       N  0.13958866  0.72401982  0.54391386    -0.43800
N1122       N  0.19620369  0.91991591  0.43416878    -0.44300
N1123       N  0.26431131  0.87531797  0.29531348    -0.41600
N1124       N  0.06427086  0.76341833  0.40718942    -0.43100
H1125       H  0.10823387  0.77600807  0.30780225     0.13100
H1126       H  0.22058011  0.86094298  0.39354955     0.09600
H1127       H  0.13881417  0.76337289  0.44641196     0.10700
H1128       H  0.19908355  0.88100579  0.53186688     0.16500
loop_ 
_geom_bond_atom_site_label_1 
_geom_bond_atom_site_label_2 
_geom_bond_distance 
_geom_bond_site_symmetry_2 
_ccdc_geom_bond_type 
O1          Cr19   2.019       .  S
O1            C9   1.269       .  A
O2          Cr19   1.966       .  S
O2            C3   1.257       .  A
C3            O4   1.268       .  A
C3          C989   1.498       .  S
O4          Cr20   2.025       .  S
O5          Cr20   1.961       .  S
O5            C6   1.260       .  A
C6            O7   1.272       .  A
C6         C1061   1.493       .  S
O7          Cr21   2.035       .  S
O8          Cr21   1.963       .  S
O8            C9   1.258       .  A
C9         C1090   1.484       .  S
O10         Cr19   1.963       .  S
O10          C18   1.259       .  A
O11         Cr19   2.032       .  S
O11          C12   1.271       .  A
C12          O13   1.258       .  A
C12        C1109   1.476       .  S
O13         Cr20   1.963       .  S
O14         Cr20   2.022       .  S
O14          C15   1.267       .  A
C15          O16   1.257       .  A
C15        C1037   1.477       .  S
O16         Cr21   1.974       .  S
O17         Cr21   2.027       .  S
O17          C18   1.270       .  A
C18        C1018   1.494       .  S
Cr19         O22   1.768       .  S
Cr20         O22   1.767       .  S
Cr21         O22   1.769       .  S
O23         Cr41   2.034       .  S
O23          C31   1.273       .  A
O24         Cr41   1.956       .  S
O24          C25   1.256       .  A
C25          O26   1.271       .  A
C25         C898   1.481       .  S
O26         Cr42   2.026       .  S
O27         Cr42   1.957       .  S
O27          C28   1.253       .  A
C28          O29   1.266       .  A
C28         C965   1.484       .  S
O29         Cr43   2.031       .  S
O30         Cr43   1.956       .  S
O30          C31   1.258       .  A
C31        C1114   1.479       .  S
O32         Cr41   1.959       .  S
O32          C40   1.255       .  A
O33         Cr41   2.025       .  S
O33          C34   1.270       .  A
C34          O35   1.258       .  A
C34        C1085   1.488       .  S
O35         Cr42   1.960       .  S
O36         Cr42   2.043       .  S
O36          C37   1.276       .  A
C37          O38   1.256       .  A
C37         C941   1.493       .  S
O38         Cr43   1.953       .  S
O39         Cr43   2.028       .  S
O39          C40   1.267       .  A
C40         C917   1.480       .  S
Cr41         O44   1.770       .  S
Cr42         O44   1.761       .  S
Cr43         O44   1.770       .  S
O45         Cr63   2.031       .  S
O45          C53   1.272       .  A
O46         Cr63   1.963       .  S
O46          C47   1.256       .  A
C47          O48   1.271       .  A
C47         C802   1.486       .  S
O48         Cr64   2.038       .  S
O49         Cr64   1.969       .  S
O49          C50   1.256       .  A
C50          O51   1.268       .  A
C50         C821   1.473       .  S
O51         Cr65   2.027       .  S
O52         Cr65   1.948       .  S
O52          C53   1.258       .  A
C53         C845   1.488       .  S
O54         Cr63   1.975       .  S
O54          C62   1.257       .  A
O55         Cr63   2.030       .  S
O55          C56   1.271       .  A
C56          O57   1.256       .  A
C56         C869   1.489       .  S
O57         Cr64   1.957       .  S
O58         Cr64   2.035       .  S
O58          C59   1.273       .  A
C59          O60   1.258       .  A
C59        C1042   1.476       .  S
O60         Cr65   1.963       .  S
O61         Cr65   2.029       .  S
O61          C62   1.268       .  A
C62         C778   1.490       .  S
Cr63         O66   1.768       .  S
Cr64         O66   1.770       .  S
Cr65         O66   1.766       .  S
O67         Cr85   1.973       .  S
O67          C75   1.258       .  A
O68         Cr85   2.017       .  S
O68          C69   1.270       .  A
C69          O70   1.264       .  A
C69         C725   1.501       .  S
O70         Cr86   1.998       .  S
O71         Cr86   1.975       .  S
O71          C72   1.257       .  A
C72          O73   1.268       .  A
C72         C749   1.484       .  S
O73         Cr87   2.008       .  S
O74         Cr87   2.010       .  S
O74          C75   1.267       .  A
C75         C874   1.494       .  S
O76         Cr85   2.007       .  S
O76          C84   1.267       .  A
O77         Cr85   1.977       .  S
O77          C78   1.256       .  A
C78          O79   1.263       .  A
C78         C850   1.478       .  S
O79         Cr86   2.010       .  S
O80         Cr86   2.003       .  S
O80          C81   1.270       .  A
C81          O82   1.264       .  A
C81         C946   1.474       .  S
O82         Cr87   1.982       .  S
O83         Cr87   1.993       .  S
O83          C84   1.262       .  A
C84         C701   1.497       .  S
Cr85         O88   1.770       .  S
Cr86         O88   1.771       .  S
Cr87         O88   1.770       .  S
O89        Cr107   1.977   1_556  S
O89          C97   1.257       .  A
O90        Cr107   2.006       .  S
O90          C91   1.268       .  A
C91          O92   1.263       .  A
C91         C682   1.501   1_554  S
O92        Cr108   1.994       .  S
O93        Cr108   1.981       .  S
O93          C94   1.264   1_554  A
C94          O95   1.269       .  A
C94         C754   1.486       .  S
O95        Cr109   2.003       .  S
O96        Cr109   2.000       .  S
O96          C97   1.261       .  A
C97         C610   1.475       .  S
O98        Cr107   2.012       .  S
O98         C106   1.268       .  A
O99        Cr107   1.979       .  S
O99         C100   1.258       .  A
C100        O101   1.265       .  A
C100        C629   1.490       .  S
O101       Cr108   1.998       .  S
O102       Cr108   2.019       .  S
O102        C103   1.270       .  A
C103        O104   1.258       .  A
C103       C1066   1.484       .  S
O104       Cr109   1.974   1_554  S
O105       Cr109   1.985   1_554  S
O105        C106   1.261       .  A
C106        C658   1.483       .  S
Cr107       O110   1.769       .  S
Cr108       O110   1.763       .  S
Cr109       O110   1.765   1_556  S
O111       Cr129   1.974       .  S
O111        C119   1.259       .  A
O112       Cr129   2.012       .  S
O112        C113   1.267       .  A
C113        O114   1.261       .  A
C113        C581   1.495       .  S
O114       Cr130   1.989       .  S
O115       Cr130   1.983       .  S
O115        C116   1.260       .  A
C116        O117   1.264       .  A
C116        C826   1.469       .  S
O117       Cr131   1.997       .  S
O118       Cr131   2.005       .  S
O118        C119   1.265       .  A
C119        C634   1.484       .  S
O120       Cr129   2.009       .  S
O120        C128   1.267       .  A
O121       Cr129   1.967       .  S
O121        C122   1.256       .  A
C122        O123   1.266       .  A
C122        C605   1.483       .  S
O123       Cr130   2.009       .  S
O124       Cr130   1.991       .  S
O124        C125   1.266       .  A
C125        O126   1.264       .  A
C125        C970   1.471       .  S
O126       Cr131   1.990       .  S
O127       Cr131   1.977       .  S
O127        C128   1.259       .  A
C128        C557   1.485       .  S
Cr129       O132   1.776       .  S
Cr130       O132   1.772       .  S
Cr131       O132   1.770       .  S
O133       Cr151   2.034       .  S
O133        C141   1.271       .  A
O134       Cr151   1.962       .  S
O134        C135   1.259       .  A
C135        O136   1.273       .  A
C135        C586   1.488       .  S
O136       Cr152   2.033       .  S
O137       Cr152   1.954       .  S
O137        C138   1.251       .  A
C138        O139   1.266       .  A
C138        C490   1.482       .  S
O139       Cr153   2.033       .  S
O140       Cr153   1.961       .  S
O140        C141   1.259       .  A
C141        C509   1.480       .  S
O142       Cr151   1.960       .  S
O142        C150   1.254       .  A
O143       Cr151   2.016       .  S
O143        C144   1.267       .  A
C144        O145   1.257       .  A
C144        C533   1.479       .  S
O145       Cr152   1.961       .  S
O146       Cr152   2.047       .  S
O146        C147   1.275       .  A
C147        O148   1.257       .  A
C147        C461   1.477       .  S
O148       Cr153   1.952       .  S
O149       Cr153   2.030       .  S
O149        C150   1.269       .  A
C150       C1013   1.479       .  S
Cr151       O154   1.768       .  S
Cr152       O154   1.766       .  S
Cr153       O154   1.773       .  S
O155       Cr173   2.024       .  S
O155        C163   1.269       .  A
O156       Cr173   1.960       .  S
O156        C157   1.254       .  A
C157        O158   1.269       .  A
C157        C677   1.485       .  S
O158       Cr174   2.031       .  S
O159       Cr174   1.968       .  S
O159        C160   1.260       .  A
C160        O161   1.270       .  A
C160        C437   1.478       .  S
O161       Cr175   2.021       .  S
O162       Cr175   1.955       .  S
O162        C163   1.257       .  A
C163        C538   1.482       .  S
O164       Cr173   1.961       .  S
O164        C172   1.257       .  A
O165       Cr173   2.030       .  S
O165        C166   1.271       .  A
C166        O167   1.257       .  A
C166        C514   1.480       .  S
O167       Cr174   1.964       .  S
O168       Cr174   2.020       .  S
O168        C169   1.266       .  A
C169        O170   1.258       .  A
C169        C418   1.489       .  S
O170       Cr175   1.964       .  S
O171       Cr175   2.017       .  S
O171        C172   1.268       .  A
C172        C922   1.484       .  S
Cr173       O176   1.771       .  S
Cr174       O176   1.770       .  S
Cr175       O176   1.766       .  S
O177       Cr195   2.029       .  S
O177        C185   1.270       .  A
O178       Cr195   1.955       .  S
O178        C179   1.254       .  A
C179        O180   1.267       .  A
C179        C653   1.478       .  S
O180       Cr196   2.021       .  S
O181       Cr196   1.961       .  S
O181        C182   1.256       .  A
C182        O183   1.269       .  A
C182        C346   1.483       .  S
O183       Cr197   2.033       .  S
O184       Cr197   1.964       .  S
O184        C185   1.258       .  A
C185        C365   1.479       .  S
O186       Cr195   1.956       .  S
O186        C194   1.253       .  A
O187       Cr195   2.025       .  S
O187        C188   1.270       .  A
C188        O189   1.258       .  A
C188        C389   1.493       .  S
O189       Cr196   1.956       .  S
O190       Cr196   2.020       .  S
O190        C191   1.270       .  A
C191        O192   1.262       .  A
C191        C466   1.486       .  S
O192       Cr197   1.971       .  S
O193       Cr197   2.039       .  S
O193        C194   1.272       .  A
C194        C773   1.496       .  S
Cr195       O198   1.772       .  S
Cr196       O198   1.765       .  S
Cr197       O198   1.773       .  S
O199       Cr217   2.028       .  S
O199        C207   1.269       .  A
O200       Cr217   1.952       .  S
O200        C201   1.257       .  A
C201        O202   1.274       .  A
C201        C562   1.490       .  S
O202       Cr218   2.038       .  S
O203       Cr218   1.965       .  S
O203        C204   1.257       .  A
C204        O205   1.271       .  A
C204        C317   1.485       .  S
O205       Cr219   2.030       .  S
O206       Cr219   1.959       .  S
O206        C207   1.256       .  A
C207        C394   1.473       .  S
O208       Cr217   1.965       .  S
O208        C216   1.258       .  A
O209       Cr217   2.022       .  S
O209        C210   1.267       .  A
C210        O211   1.258       .  A
C210        C370   1.479       .  S
O211       Cr218   1.967       .  S
O212       Cr218   2.041       .  S
O212        C213   1.272       .  A
C213        O214   1.254       .  A
C213        C413   1.477       .  S
O214       Cr219   1.952       .  S
O215       Cr219   2.031       .  S
O215        C216   1.271       .  A
C216        C706   1.493       .  S
Cr217       O220   1.765       .  S
Cr218       O220   1.767       .  S
Cr219       O220   1.758       .  S
O221       Cr239   2.020       .  S
O221        C229   1.269       .  A
O222       Cr239   1.976       .  S
O222        C223   1.257       .  A
C223        O224   1.268   1_556  A
C223        C730   1.487       .  S
O224       Cr240   2.028       .  S
O225       Cr240   1.966   1_556  S
O225        C226   1.257       .  A
C226        O227   1.270       .  A
C226        C442   1.476       .  S
O227       Cr241   2.027       .  S
O228       Cr241   1.962       .  S
O228        C229   1.258       .  A
C229        C274   1.481       .  S
O230       Cr239   1.969   1_554  S
O230        C238   1.258       .  A
O231       Cr239   2.027   1_554  S
O231        C232   1.271       .  A
C232        O233   1.259       .  A
C232        C293   1.485       .  S
O233       Cr240   1.962       .  S
O234       Cr240   2.034       .  S
O234        C235   1.270       .  A
C235        O236   1.259       .  A
C235        C341   1.494       .  S
O236       Cr241   1.961   1_554  S
O237       Cr241   2.029       .  S
O237        C238   1.270   1_556  A
C238        C994   1.498       .  S
Cr239       O242   1.767       .  S
Cr240       O242   1.770   1_554  S
Cr241       O242   1.769       .  S
O243       Cr261   1.986       .  S
O243        C251   1.259       .  A
O244       Cr261   2.015       .  S
O244        C245   1.267       .  A
C245        O246   1.262       .  A
C245        C797   1.504       .  S
O246       Cr262   1.989       .  S
O247       Cr262   1.984       .  S
O247        C248   1.263       .  A
C248        O249   1.266       .  A
C248        C485   1.471       .  S
O249       Cr263   1.991       .  S
O250       Cr263   2.005       .  S
O250        C251   1.264       .  A
C251        C298   1.498       .  S
O252       Cr261   2.013       .  S
O252        C260   1.269       .  A
O253       Cr261   1.992       .  S
O253        C254   1.262       .  A
C254        O255   1.266       .  A
C254        C269   1.497       .  S
O255       Cr262   2.002       .  S
O256       Cr262   2.010       .  S
O256        C257   1.268       .  A
C257        O258   1.261       .  A
C257        C322   1.488       .  S
O258       Cr263   1.979       .  S
O259       Cr263   1.985       .  S
O259        C260   1.261       .  A
C260        C893   1.494       .  S
Cr261       O264   1.773       .  S
Cr262       O264   1.767       .  S
Cr263       O264   1.772       .  S
C265        C266   1.408       .  A
C265        C270   1.399       .  A
C265        C279   1.444       .  S
C266        C271   1.486       .  S
C266        C267   1.402       .  A
C267        C268   1.405       .  A
C267        H286   1.085       .  S
C268        C269   1.420       .  A
C268        C280   1.443       .  S
C269        C270   1.410       .  A
C270        H285   1.085       .  S
C271        C272   1.401       .  A
C271        C276   1.411       .  A
C272        C273   1.399       .  A
C272        H287   1.085       .  S
C273        C274   1.413       .  A
C273        C277   1.444       .  S
C274        C275   1.406       .  A
C275        C276   1.405       .  A
C275        H288   1.085       .  S
C276        C278   1.443       .  S
C277        N281   1.157       .  T
C278        N282   1.157       .  T
C279        N284   1.157       .  T
C280        N283   1.157       .  T
C289        C290   1.410       .  A
C289        C294   1.407       .  A
C289        C303   1.442       .  S
C290        C295   1.487       .  S
C290        C291   1.400       .  A
C291        C292   1.400       .  A
C291        H310   1.085       .  S
C292        C293   1.414       .  A
C292        C304   1.444       .  S
C293        C294   1.407       .  A
C294        H309   1.084       .  S
C295        C296   1.401       .  A
C295        C300   1.408       .  A
C296        C297   1.406       .  A
C296        H311   1.086       .  S
C297        C298   1.421       .  A
C297        C301   1.444       .  S
C298        C299   1.410       .  A
C299        C300   1.401       .  A
C299        H312   1.085       .  S
C300        C302   1.445       .  S
C301        N305   1.157       .  T
C302        N306   1.157       .  T
C303        N308   1.157       .  T
C304        N307   1.157       .  T
C313        C314   1.408       .  A
C313        C318   1.400       .  A
C313        C327   1.443       .  S
C314        C319   1.483       .  S
C314        C315   1.402       .  A
C315        C316   1.403       .  A
C315        H334   1.085       .  S
C316        C317   1.417       .  A
C316        C328   1.445       .  S
C317        C318   1.406       .  A
C318        H333   1.085       .  S
C319        C320   1.407       .  A
C319        C324   1.404       .  A
C320        C321   1.410       .  A
C320        H335   1.085       .  S
C321        C322   1.413       .  A
C321        C325   1.443       .  S
C322        C323   1.410       .  A
C323        C324   1.394       .  A
C323        H336   1.085       .  S
C324        C326   1.445       .  S
C325        N329   1.157       .  T
C326        N330   1.157       .  T
C327        N332   1.157       .  T
C328        N331   1.158       .  T
C337        C338   1.410       .  A
C337        C342   1.395       .  A
C337        C351   1.446       .  S
C338        C343   1.489       .  S
C338        C339   1.404       .  A
C339        C340   1.407       .  A
C339        H358   1.085       .  S
C340        C341   1.420       .  A
C340        C352   1.444       .  S
C341        C342   1.408       .  A
C342        H357   1.084       .  S
C343        C344   1.400       .  A
C343        C348   1.413       .  A
C344        C345   1.395       .  A
C344        H359   1.086       .  S
C345        C346   1.417       .  A
C345        C349   1.446       .  S
C346        C347   1.405       .  A
C347        C348   1.407       .  A
C347        H360   1.085       .  S
C348        C350   1.443       .  S
C349        N353   1.157       .  T
C350        N354   1.157       .  T
C351        N356   1.157       .  T
C352        N355   1.157       .  T
C361        C362   1.414       .  A
C361        C366   1.407   1_556  A
C361        C375   1.443       .  S
C362        C367   1.489       .  S
C362        C363   1.401       .  A
C363        C364   1.399   1_556  A
C363        H382   1.085       .  S
C364        C365   1.413       .  A
C364        C376   1.445       .  S
C365        C366   1.403       .  A
C366        H381   1.084       .  S
C367        C368   1.402       .  A
C367        C372   1.413       .  A
C368        C369   1.398       .  A
C368        H383   1.085       .  S
C369        C370   1.413       .  A
C369        C373   1.446       .  S
C370        C371   1.404       .  A
C371        C372   1.407       .  A
C371        H384   1.084       .  S
C372        C374   1.443       .  S
C373        N377   1.157       .  T
C374        N378   1.157       .  T
C375        N380   1.157       .  T
C376        N379   1.157       .  T
C385        C386   1.407       .  A
C385        C390   1.394       .  A
C385        C399   1.446       .  S
C386        C391   1.484       .  S
C386        C387   1.403       .  A
C387        C388   1.409       .  A
C387        H406   1.085       .  S
C388        C389   1.418       .  A
C388        C400   1.443       .  S
C389        C390   1.409       .  A
C390        H405   1.085       .  S
C391        C392   1.406       .  A
C391        C396   1.409       .  A
C392        C393   1.407       .  A
C392        H407   1.084       .  S
C393        C394   1.410       .  A
C393        C397   1.443       .  S
C394        C395   1.402       .  A
C395        C396   1.395       .  A
C395        H408   1.085       .  S
C396        C398   1.444       .  S
C397        N401   1.157       .  T
C398        N402   1.157       .  T
C399        N404   1.157       .  T
C400        N403   1.157       .  T
C409        C410   1.413       .  A
C409        C414   1.407       .  A
C409        C423   1.443       .  S
C410        C415   1.481       .  S
C410        C411   1.396       .  A
C411        C412   1.392       .  A
C411        H430   1.085       .  S
C412        C413   1.417       .  A
C412        C424   1.446       .  S
C413        C414   1.403       .  A
C414        H429   1.084       .  S
C415        C416   1.400       .  A
C415        C420   1.409       .  A
C416        C417   1.402       .  A
C416        H431   1.085       .  S
C417        C418   1.420       .  A
C417        C421   1.444       .  S
C418        C419   1.408       .  A
C419        C420   1.397       .  A
C419        H432   1.085       .  S
C420        C422   1.445       .  S
C421        N425   1.157       .  T
C422        N426   1.157       .  T
C423        N428   1.157       .  T
C424        N427   1.157       .  T
C433        C434   1.411       .  A
C433        C438   1.399       .  A
C433        C447   1.444       .  S
C434        C439   1.489       .  S
C434        C435   1.406       .  A
C435        C436   1.402       .  A
C435        H454   1.083       .  S
C436        C437   1.411       .  A
C436        C448   1.445       .  S
C437        C438   1.406       .  A
C438        H453   1.083       .  S
C439        C440   1.405       .  A
C439        C444   1.412       .  A
C440        C441   1.401       .  A
C440        H455   1.085       .  S
C441        C442   1.411       .  A
C441        C445   1.444       .  S
C442        C443   1.404       .  A
C443        C444   1.399       .  A
C443        H456   1.085       .  S
C444        C446   1.444       .  S
C445        N449   1.157       .  T
C446        N450   1.157       .  T
C447        N452   1.157       .  T
C448        N451   1.157       .  T
C457        C458   1.408       .  A
C457        C462   1.394       .  A
C457        C471   1.445       .  S
C458        C463   1.487       .  S
C458        C459   1.409       .  A
C459        C460   1.407       .  A
C459        H478   1.084       .  S
C460        C461   1.408       .  A
C460        C472   1.442       .  S
C461        C462   1.405       .  A
C462        H477   1.086       .  S
C463        C464   1.404       .  A
C463        C468   1.408       .  A
C464        C465   1.401       .  A
C464        H479   1.085       .  S
C465        C466   1.414       .  A
C465        C469   1.444       .  S
C466        C467   1.409       .  A
C467        C468   1.401       .  A
C467        H480   1.085       .  S
C468        C470   1.444       .  S
C469        N473   1.157       .  T
C470        N474   1.157       .  T
C471        N476   1.157       .  T
C472        N475   1.157       .  T
C481        C482   1.407       .  A
C481        C486   1.395       .  A
C481        C495   1.445       .  S
C482        C487   1.479       .  S
C482        C483   1.404       .  A
C483        C484   1.404       .  A
C483        H502   1.084       .  S
C484        C485   1.411       .  A
C484        C496   1.444       .  S
C485        C486   1.404       .  A
C486        H501   1.085       .  S
C487        C488   1.396       .  A
C487        C492   1.410       .  A
C488        C489   1.396       .  A
C488        H503   1.085       .  S
C489        C490   1.421       .  A
C489        C493   1.446       .  S
C490        C491   1.404       .  A
C491        C492   1.404       .  A
C491        H504   1.084       .  S
C492        C494   1.444       .  S
C493        N497   1.158       .  T
C494        N498   1.157       .  T
C495        N500   1.157       .  T
C496        N499   1.157       .  T
C505        C506   1.417       .  A
C505        C510   1.408       .  A
C505        C519   1.444       .  S
C506        C511   1.496       .  S
C506        C507   1.404       .  A
C507        C508   1.398       .  A
C507        H526   1.085       .  S
C508        C509   1.411       .  A
C508        C520   1.445       .  S
C509        C510   1.404       .  A
C510        H525   1.085       .  S
C511        C512   1.404       .  A
C511        C516   1.417       .  A
C512        C513   1.400       .  A
C512        H527   1.085       .  S
C513        C514   1.413       .  A
C513        C517   1.445       .  S
C514        C515   1.402       .  A
C515        C516   1.407       .  A
C515        H528   1.085       .  S
C516        C518   1.443       .  S
C517        N521   1.157       .  T
C518        N522   1.157       .  T
C519        N524   1.157       .  T
C520        N523   1.157       .  T
C529        C530   1.409       .  A
C529        C534   1.403       .  A
C529        C543   1.443       .  S
C530        C535   1.483       .  S
C530        C531   1.402       .  A
C531        C532   1.400       .  A
C531        H550   1.085       .  S
C532        C533   1.413       .  A
C532        C544   1.445       .  S
C533        C534   1.405       .  A
C534        H549   1.085       .  S
C535        C536   1.404       .  A
C535        C540   1.408       .  A
C536        C537   1.406   1_554  A
C536        H551   1.085       .  S
C537        C538   1.414       .  A
C537        C541   1.443       .  S
C538        C539   1.405       .  A
C539        C540   1.396   1_556  A
C539        H552   1.085       .  S
C540        C542   1.444       .  S
C541        N545   1.157       .  T
C542        N546   1.157       .  T
C543        N548   1.157       .  T
C544        N547   1.157       .  T
C553        C554   1.409       .  A
C553        C558   1.401       .  A
C553        C567   1.444       .  S
C554        C559   1.487   1_455  S
C554        C555   1.404       .  A
C555        C556   1.404       .  A
C555        H574   1.085       .  S
C556        C557   1.414       .  A
C556        C568   1.444       .  S
C557        C558   1.405       .  A
C558        H573   1.083       .  S
C559        C560   1.407       .  A
C559        C564   1.406       .  A
C560        C561   1.410       .  A
C560        H575   1.084   1_655  S
C561        C562   1.413       .  A
C561        C565   1.443       .  S
C562        C563   1.408       .  A
C563        C564   1.395       .  A
C563        H576   1.082       .  S
C564        C566   1.445       .  S
C565        N569   1.157       .  T
C566        N570   1.157       .  T
C567        N572   1.157       .  T
C568        N571   1.157       .  T
C577        C578   1.411       .  A
C577        C582   1.406       .  A
C577        C591   1.444       .  S
C578        C583   1.497       .  S
C578        C579   1.406       .  A
C579        C580   1.403       .  A
C579        H598   1.080       .  S
C580        C581   1.414       .  A
C580        C592   1.443       .  S
C581        C582   1.409       .  A
C582        H597   1.075       .  S
C583        C584   1.405       .  A
C583        C588   1.412       .  A
C584        C585   1.407       .  A
C584        H599   1.084       .  S
C585        C586   1.414       .  A
C585        C589   1.441       .  S
C586        C587   1.406       .  A
C587        C588   1.402       .  A
C587        H600   1.085       .  S
C588        C590   1.444       .  S
C589        N593   1.156       .  T
C590        N594   1.157       .  T
C591        N596   1.157       .  T
C592        N595   1.157       .  T
C601        C602   1.410       .  A
C601        C606   1.397       .  A
C601        C615   1.445       .  S
C602        C607   1.481       .  S
C602        C603   1.400       .  A
C603        C604   1.401       .  A
C603        H622   1.086       .  S
C604        C605   1.418       .  A
C604        C616   1.444       .  S
C605        C606   1.405       .  A
C606        H621   1.085       .  S
C607        C608   1.403       .  A
C607        C612   1.409       .  A
C608        C609   1.402       .  A
C608        H623   1.084       .  S
C609        C610   1.413       .  A
C609        C613   1.445       .  S
C610        C611   1.403       .  A
C611        C612   1.397       .  A
C611        H624   1.085       .  S
C612        C614   1.444       .  S
C613        N617   1.158       .  T
C614        N618   1.157       .  T
C615        N620   1.157       .  T
C616        N619   1.157       .  T
C625        C626   1.410       .  A
C625        C630   1.394       .  A
C625        C639   1.444       .  S
C626        C631   1.485       .  S
C626        C627   1.403       .  A
C627        C628   1.405       .  A
C627        H646   1.087       .  S
C628        C629   1.419       .  A
C628        C640   1.444       .  S
C629        C630   1.406       .  A
C630        H645   1.086       .  S
C631        C632   1.402       .  A
C631        C636   1.411       .  A
C632        C633   1.399       .  A
C632        H647   1.085       .  S
C633        C634   1.415       .  A
C633        C637   1.444       .  S
C634        C635   1.407       .  A
C635        C636   1.400       .  A
C635        H648   1.085       .  S
C636        C638   1.445       .  S
C637        N641   1.157       .  T
C638        N642   1.157       .  T
C639        N644   1.156       .  T
C640        N643   1.158       .  T
C649        C650   1.410       .  A
C649        C654   1.405       .  A
C649        C663   1.443       .  S
C650        C655   1.484   1_655  S
C650        C651   1.401       .  A
C651        C652   1.398       .  A
C651        H670   1.085       .  S
C652        C653   1.413       .  A
C652        C664   1.445       .  S
C653        C654   1.405       .  A
C654        H669   1.084       .  S
C655        C656   1.399       .  A
C655        C660   1.410       .  A
C656        C657   1.401       .  A
C656        H671   1.085       .  S
C657        C658   1.417       .  A
C657        C661   1.442       .  S
C658        C659   1.404       .  A
C659        C660   1.401       .  A
C659        H672   1.085   1_554  S
C660        C662   1.444   1_455  S
C661        N665   1.157       .  T
C662        N666   1.157       .  T
C663        N668   1.157       .  T
C664        N667   1.157       .  T
C673        C674   1.408       .  A
C673        C678   1.398       .  A
C673        C687   1.444       .  S
C674        C679   1.490       .  S
C674        C675   1.407       .  A
C675        C676   1.410       .  A
C675        H694   1.083       .  S
C676        C677   1.412       .  A
C676        C688   1.443       .  S
C677        C678   1.406       .  A
C678        H693   1.083       .  S
C679        C680   1.401       .  A
C679        C684   1.408       .  A
C680        C681   1.408       .  A
C680        H695   1.085       .  S
C681        C682   1.421       .  A
C681        C685   1.442       .  S
C682        C683   1.410       .  A
C683        C684   1.401       .  A
C683        H696   1.085       .  S
C684        C686   1.445       .  S
C685        N689   1.157       .  T
C686        N690   1.157       .  T
C687        N692   1.157   1_556  T
C688        N691   1.157       .  T
C697        C698   1.409       .  A
C697        C702   1.401       .  A
C697        C711   1.444       .  S
C698        C703   1.490   1_565  S
C698        C699   1.403       .  A
C699        C700   1.409       .  A
C699        H718   1.085       .  S
C700        C701   1.419       .  A
C700        C712   1.443       .  S
C701        C702   1.408       .  A
C702        H717   1.085       .  S
C703        C704   1.405       .  A
C703        C708   1.407       .  A
C704        C705   1.410       .  A
C704        H719   1.084       .  S
C705        C706   1.416       .  A
C705        C709   1.443       .  S
C706        C707   1.408       .  A
C707        C708   1.399       .  A
C707        H720   1.084       .  S
C708        C710   1.444       .  S
C709        N713   1.157       .  T
C710        N714   1.157       .  T
C711        N716   1.157       .  T
C712        N715   1.157       .  T
C721        C722   1.415       .  A
C721        C726   1.404       .  A
C721        C735   1.443       .  S
C722        C727   1.504       .  S
C722        C723   1.405       .  A
C723        C724   1.409       .  A
C723        H742   1.085       .  S
C724        C725   1.421       .  A
C724        C736   1.442       .  S
C725        C726   1.406       .  A
C726        H741   1.085       .  S
C727        C728   1.409       .  A
C727        C732   1.414       .  A
C728        C729   1.409       .  A
C728        H743   1.085       .  S
C729        C730   1.411       .  A
C729        C733   1.443   1_556  S
C730        C731   1.405       .  A
C731        C732   1.404       .  A
C731        H744   1.085       .  S
C732        C734   1.444       .  S
C733        N737   1.157       .  T
C734        N738   1.157       .  T
C735        N740   1.157       .  T
C736        N739   1.157       .  T
C745        C746   1.412       .  A
C745        C750   1.404       .  A
C745        C759   1.443       .  S
C746        C751   1.479       .  S
C746        C747   1.394       .  A
C747        C748   1.395       .  A
C747        H766   1.087       .  S
C748        C749   1.423       .  A
C748        C760   1.447       .  S
C749        C750   1.404       .  A
C750        H765   1.085       .  S
C751        C752   1.406       .  A
C751        C756   1.403       .  A
C752        C753   1.407       .  A
C752        H767   1.077       .  S
C753        C754   1.413       .  A
C753        C757   1.443       .  S
C754        C755   1.411       .  A
C755        C756   1.392       .  A
C755        H768   1.078       .  S
C756        C758   1.445       .  S
C757        N761   1.157       .  T
C758        N762   1.157       .  T
C759        N764   1.157       .  T
C760        N763   1.157       .  T
C769        C770   1.411       .  A
C769        C774   1.408       .  A
C769        C783   1.442       .  S
C770        C775   1.490   1_545  S
C770        C771   1.399       .  A
C771        C772   1.400       .  A
C771        H790   1.085       .  S
C772        C773   1.422       .  A
C772        C784   1.445       .  S
C773        C774   1.408       .  A
C774        H789   1.084       .  S
C775        C776   1.400       .  A
C775        C780   1.412       .  A
C776        C777   1.401       .  A
C776        H791   1.085       .  S
C777        C778   1.416       .  A
C777        C781   1.443       .  S
C778        C779   1.407       .  A
C779        C780   1.408       .  A
C779        H792   1.084       .  S
C780        C782   1.443   1_565  S
C781        N785   1.157       .  T
C782        N786   1.157       .  T
C783        N788   1.157       .  T
C784        N787   1.158       .  T
C793        C794   1.409       .  A
C793        C798   1.406       .  A
C793        C807   1.443       .  S
C794        C799   1.497       .  S
C794        C795   1.405       .  A
C795        C796   1.408       .  A
C795        H814   1.084       .  S
C796        C797   1.420       .  A
C796        C808   1.444       .  S
C797        C798   1.411       .  A
C798        H813   1.084       .  S
C799        C800   1.402       .  A
C799        C804   1.416       .  A
C800        C801   1.403       .  A
C800        H815   1.085       .  S
C801        C802   1.415       .  A
C801        C805   1.445       .  S
C802        C803   1.404       .  A
C803        C804   1.410       .  A
C803        H816   1.084       .  S
C804        C806   1.443       .  S
C805        N809   1.157       .  T
C806        N810   1.157       .  T
C807        N812   1.157       .  T
C808        N811   1.157       .  T
C817        C818   1.409       .  A
C817        C822   1.398       .  A
C817        C831   1.445       .  S
C818        C823   1.490       .  S
C818        C819   1.410       .  A
C819        C820   1.406       .  A
C819        H838   1.084       .  S
C820        C821   1.406       .  A
C820        C832   1.443       .  S
C821        C822   1.403       .  A
C822        H837   1.085       .  S
C823        C824   1.409       .  A
C823        C828   1.411       .  A
C824        C825   1.403       .  A
C824        H839   1.083       .  S
C825        C826   1.405       .  A
C825        C829   1.442       .  S
C826        C827   1.404       .  A
C827        C828   1.399       .  A
C827        H840   1.084       .  S
C828        C830   1.444       .  S
C829        N833   1.157       .  T
C830        N834   1.157       .  T
C831        N836   1.157       .  T
C832        N835   1.157       .  T
C841        C842   1.409       .  A
C841        C846   1.391       .  A
C841        C855   1.446       .  S
C842        C847   1.486       .  S
C842        C843   1.405       .  A
C843        C844   1.408       .  A
C843        H862   1.085       .  S
C844        C845   1.417       .  A
C844        C856   1.443       .  S
C845        C846   1.406       .  A
C846        H861   1.085       .  S
C847        C848   1.404       .  A
C847        C852   1.412       .  A
C848        C849   1.403       .  A
C848        H863   1.084       .  S
C849        C850   1.412       .  A
C849        C853   1.444       .  S
C850        C851   1.403       .  A
C851        C852   1.399       .  A
C851        H864   1.085       .  S
C852        C854   1.445       .  S
C853        N857   1.157       .  T
C854        N858   1.157       .  T
C855        N860   1.157       .  T
C856        N859   1.157       .  T
C865        C866   1.409       .  A
C865        C870   1.406       .  A
C865        C879   1.443       .  S
C866        C871   1.483       .  S
C866        C867   1.398       .  A
C867        C868   1.398       .  A
C867        H886   1.085       .  S
C868        C869   1.418       .  A
C868        C880   1.445       .  S
C869        C870   1.407       .  A
C870        H885   1.085       .  S
C871        C872   1.399       .  A
C871        C876   1.408       .  A
C872        C873   1.403   1_554  A
C872        H887   1.085       .  S
C873        C874   1.422       .  A
C873        C877   1.443       .  S
C874        C875   1.408       .  A
C875        C876   1.400   1_556  A
C875        H888   1.085       .  S
C876        C878   1.444       .  S
C877        N881   1.157       .  T
C878        N882   1.157       .  T
C879        N884   1.157       .  T
C880        N883   1.157       .  T
C889        C890   1.414       .  A
C889        C894   1.400       .  A
C889        C903   1.445   1_655  S
C890        C895   1.497   1_655  S
C890        C891   1.404       .  A
C891        C892   1.407       .  A
C891        H910   1.084       .  S
C892        C893   1.420       .  A
C892        C904   1.444       .  S
C893        C894   1.405       .  A
C894        H909   1.084       .  S
C895        C896   1.405       .  A
C895        C900   1.415       .  A
C896        C897   1.400       .  A
C896        H911   1.085       .  S
C897        C898   1.412       .  A
C897        C901   1.444       .  S
C898        C899   1.404       .  A
C899        C900   1.406       .  A
C899        H912   1.085       .  S
C900        C902   1.443       .  S
C901        N905   1.157       .  T
C902        N906   1.157       .  T
C903        N908   1.157       .  T
C904        N907   1.157       .  T
C913        C914   1.412       .  A
C913        C918   1.406       .  A
C913        C927   1.444   1_565  S
C914        C919   1.482   1_565  S
C914        C915   1.398       .  A
C915        C916   1.396       .  A
C915        H934   1.086       .  S
C916        C917   1.415       .  A
C916        C928   1.445       .  S
C917        C918   1.404       .  A
C918        H933   1.085       .  S
C919        C920   1.400       .  A
C919        C924   1.409       .  A
C920        C921   1.397       .  A
C920        H935   1.085       .  S
C921        C922   1.415       .  A
C921        C925   1.444       .  S
C922        C923   1.408       .  A
C923        C924   1.405       .  A
C923        H936   1.084       .  S
C924        C926   1.443       .  S
C925        N929   1.157       .  T
C926        N930   1.157       .  T
C927        N932   1.157       .  T
C928        N931   1.157       .  T
C937        C938   1.414       .  A
C937        C942   1.405       .  A
C937        C951   1.443       .  S
C938        C943   1.494       .  S
C938        C939   1.400       .  A
C939        C940   1.396       .  A
C939        H958   1.086       .  S
C940        C941   1.423       .  A
C940        C952   1.446       .  S
C941        C942   1.408       .  A
C942        H957   1.085       .  S
C943        C944   1.409       .  A
C943        C948   1.414       .  A
C944        C945   1.407       .  A
C944        H959   1.085       .  S
C945        C946   1.410       .  A
C945        C949   1.443       .  S
C946        C947   1.402       .  A
C947        C948   1.395       .  A
C947        H960   1.087       .  S
C948        C950   1.445       .  S
C949        N953   1.157       .  T
C950        N954   1.157       .  T
C951        N956   1.157       .  T
C952        N955   1.158       .  T
C961        C962   1.411       .  A
C961        C966   1.393       .  A
C961        C975   1.446       .  S
C962        C967   1.492       .  S
C962        C963   1.409       .  A
C963        C964   1.407       .  A
C963        H982   1.084       .  S
C964        C965   1.413       .  A
C964        C976   1.443       .  S
C965        C966   1.406       .  A
C966        H981   1.085       .  S
C967        C968   1.404       .  A
C967        C972   1.415       .  A
C968        C969   1.394       .  A
C968        H983   1.084       .  S
C969        C970   1.407       .  A
C969        C973   1.441       .  S
C970        C971   1.403       .  A
C971        C972   1.405       .  A
C971        H984   1.084       .  S
C972        C974   1.443       .  S
C973        N977   1.156       .  T
C974        N978   1.157       .  T
C975        N980   1.157       .  T
C976        N979   1.157       .  T
C985        C986   1.408       .  A
C985        C990   1.400       .  A
C985        C999   1.444       .  S
C986        C991   1.493   1_455  S
C986        C987   1.406       .  A
C987        C988   1.407       .  A
C987       H1006   1.085       .  S
C988        C989   1.418       .  A
C988       C1000   1.443       .  S
C989        C990   1.411       .  A
C990       H1005   1.084       .  S
C991        C992   1.406       .  A
C991        C996   1.408       .  A
C992        C993   1.409       .  A
C992       H1007   1.084       .  S
C993        C994   1.418       .  A
C993        C997   1.443   1_554  S
C994        C995   1.410       .  A
C995        C996   1.400       .  A
C995       H1008   1.084       .  S
C996        C998   1.444       .  S
C997       N1001   1.157       .  T
C998       N1002   1.157       .  T
C999       N1004   1.157   1_554  T
C1000      N1003   1.157       .  T
C1009      C1010   1.408       .  A
C1009      C1014   1.399       .  A
C1009      C1023   1.444       .  S
C1010      C1015   1.487   1_545  S
C1010      C1011   1.407       .  A
C1011      C1012   1.406       .  A
C1011      H1030   1.084       .  S
C1012      C1013   1.409       .  A
C1012      C1024   1.443       .  S
C1013      C1014   1.406       .  A
C1014      H1029   1.085       .  S
C1015      C1016   1.403       .  A
C1015      C1020   1.408       .  A
C1016      C1017   1.408       .  A
C1016      H1031   1.085       .  S
C1017      C1018   1.418       .  A
C1017      C1021   1.443       .  S
C1018      C1019   1.409       .  A
C1019      C1020   1.397       .  A
C1019      H1032   1.085       .  S
C1020      C1022   1.445       .  S
C1021      N1025   1.157       .  T
C1022      N1026   1.157   1_565  T
C1023      N1028   1.157       .  T
C1024      N1027   1.157       .  T
C1033      C1034   1.407       .  A
C1033      C1038   1.398       .  A
C1033      C1047   1.444       .  S
C1034      C1039   1.484       .  S
C1034      C1035   1.405       .  A
C1035      C1036   1.404       .  A
C1035      H1054   1.085       .  S
C1036      C1037   1.409       .  A
C1036      C1048   1.442       .  S
C1037      C1038   1.406       .  A
C1038      H1053   1.082       .  S
C1039      C1040   1.404       .  A
C1039      C1044   1.410       .  A
C1040      C1041   1.402       .  A
C1040      H1055   1.084       .  S
C1041      C1042   1.411       .  A
C1041      C1045   1.444       .  S
C1042      C1043   1.404       .  A
C1043      C1044   1.398       .  A
C1043      H1056   1.079       .  S
C1044      C1046   1.445       .  S
C1045      N1049   1.157       .  T
C1046      N1050   1.157       .  T
C1047      N1052   1.157       .  T
C1048      N1051   1.157       .  T
C1057      C1058   1.407       .  A
C1057      C1062   1.396       .  A
C1057      C1071   1.445       .  S
C1058      C1063   1.485       .  S
C1058      C1059   1.404       .  A
C1059      C1060   1.405       .  A
C1059      H1078   1.086       .  S
C1060      C1061   1.419       .  A
C1060      C1072   1.444       .  S
C1061      C1062   1.410       .  A
C1062      H1077   1.085       .  S
C1063      C1064   1.395       .  A
C1063      C1068   1.413       .  A
C1064      C1065   1.391       .  A
C1064      H1079   1.086       .  S
C1065      C1066   1.420       .  A
C1065      C1069   1.446       .  S
C1066      C1067   1.405       .  A
C1067      C1068   1.409       .  A
C1067      H1080   1.085       .  S
C1068      C1070   1.442       .  S
C1069      N1073   1.157       .  T
C1070      N1074   1.157       .  T
C1071      N1076   1.157       .  T
C1072      N1075   1.157       .  T
C1081      C1082   1.409       .  A
C1081      C1086   1.397       .  A
C1081      C1095   1.445       .  S
C1082      C1087   1.487       .  S
C1082      C1083   1.404       .  A
C1083      C1084   1.407       .  A
C1083      H1102   1.084       .  S
C1084      C1085   1.416       .  A
C1084      C1096   1.443       .  S
C1085      C1086   1.407       .  A
C1086      H1101   1.085       .  S
C1087      C1088   1.402       .  A
C1087      C1092   1.410       .  A
C1088      C1089   1.399   1_556  A
C1088      H1103   1.085       .  S
C1089      C1090   1.415       .  A
C1089      C1093   1.445       .  S
C1090      C1091   1.407       .  A
C1091      C1092   1.405   1_554  A
C1091      H1104   1.085       .  S
C1092      C1094   1.443       .  S
C1093      N1097   1.157       .  T
C1094      N1098   1.157       .  T
C1095      N1100   1.157       .  T
C1096      N1099   1.157       .  T
C1105      C1106   1.415       .  A
C1105      C1110   1.408       .  A
C1105      C1119   1.444       .  S
C1106      C1111   1.493       .  S
C1106      C1107   1.403       .  A
C1107      C1108   1.397       .  A
C1107      H1126   1.085       .  S
C1108      C1109   1.409       .  A
C1108      C1120   1.444       .  S
C1109      C1110   1.404       .  A
C1110      H1125   1.085       .  S
C1111      C1112   1.403       .  A
C1111      C1116   1.415       .  A
C1112      C1113   1.399       .  A
C1112      H1127   1.085       .  S
C1113      C1114   1.414       .  A
C1113      C1117   1.446       .  S
C1114      C1115   1.402       .  A
C1115      C1116   1.405       .  A
C1115      H1128   1.085       .  S
C1116      C1118   1.443       .  S
C1117      N1121   1.157       .  T
C1118      N1122   1.157       .  T
C1119      N1124   1.157       .  T
C1120      N1123   1.157       .  T
