geometry optimzed in LAMMPS
_audit_creation_date              2020-12-01 
_audit_creation_method            'lammps2cif' 
_symmetry_space_group_name_H-M    'P1' 
_symmetry_Int_Tables_number       1 
_symmetry_cell_setting            triclinic 
loop_ 
_symmetry_equiv_pos_as_xyz 
  x,y,z 
_cell_length_a                    44.04874276 
_cell_length_b                    43.76492116430506 
_cell_length_c                    41.74043711683305 
_cell_angle_alpha                 90.04420330052426 
_cell_angle_beta                  89.74782516010197 
_cell_angle_gamma                 90.05163817494625 
loop_ 
_atom_site_label 
_atom_site_type_symbol 
_atom_site_fract_x 
_atom_site_fract_y 
_atom_site_fract_z 
_atom_site_charge 
Fe1        Fe  0.11294666  0.61287067  0.24356952     1.65800
Fe2        Fe  0.18715242  0.63427588  0.24772291     1.73200
Fe3        Fe  0.13093520  0.68863301  0.24762190     1.54400
O4          O  0.10170351  0.68430832  0.20934862    -0.81100
O5          O  0.19834377  0.66818613  0.28003786    -0.79400
O6          O  0.08706464  0.63562736  0.21026040    -0.83600
O7          O  0.08769114  0.63080271  0.28017187    -0.78500
O8          O  0.16457130  0.70157343  0.21554981    -0.80200
O9          O  0.18066006  0.60467722  0.28582969    -0.83000
C10         C  0.08112020  0.65752698  0.28933571     0.97800
C11         C  0.08502661  0.66264831  0.19955443     1.05200
O12         O  0.14365176  0.64532964  0.24627877    -1.12000
O13         O  0.18347503  0.59825421  0.21566161    -0.74400
O14         O  0.13425201  0.59096641  0.20650812    -0.77900
O15         O  0.09526026  0.68104702  0.27940809    -0.78600
C16         C  0.16188440  0.58505740  0.20120711     0.96700
O17         O  0.13453545  0.58569435  0.27681186    -0.76500
O18         O  0.19727151  0.66289706  0.20989692    -0.81700
C19         C  0.18491220  0.69034346  0.29351109     0.99300
C20         C  0.18733615  0.68910794  0.20207265     1.05200
O21         O  0.15828186  0.69867511  0.28624242    -0.77400
C22         C  0.15951547  0.58575461  0.29189743     1.03500
Fe23       Fe  0.38733448  0.88331622  0.99490494     1.65800
Fe24       Fe  0.30615110  0.86369635  0.50361408     1.73200
Fe25       Fe  0.35586373  0.80390559  0.50863965     1.54400
O26         O  0.38554199  0.80391862  0.46999513    -0.81100
O27         O  0.29701614  0.83750835  0.03096546    -0.79400
O28         O  0.40715038  0.85007964  0.47263299    -0.83600
O29         O  0.41202785  0.85905369  0.02781719    -0.78500
O30         O  0.32072380  0.79272778  0.47766229    -0.80200
O31         O  0.32009136  0.89904405  0.03490171    -0.83000
C32         C  0.41161116  0.83237949  0.03950154     0.97800
C33         C  0.40533854  0.82328652  0.46106967     1.05200
O34         O  0.34813633  0.84821846  0.50532370    -1.12000
O35         O  0.31533177  0.89824168  0.47132804    -0.74400
O36         O  0.36544282  0.90020648  0.46463600    -0.77900
O37         O  0.39344639  0.81167437  0.03039549    -0.78600
C38         C  0.33882553  0.90889202  0.45780526     0.96700
O39         O  0.36966416  0.90876176  0.03237095    -0.76500
O40         O  0.29556972  0.83524479  0.46593339    -0.81700
C41         C  0.30609728  0.81157382  0.04020405     0.99300
C42         C  0.30039690  0.80691912  0.46201180     1.05200
O43         O  0.32967584  0.79897026  0.02889295    -0.77400
C44         C  0.34356302  0.91309311  0.04467395     1.03500
Fe45       Fe  0.88319860  0.60469899  0.49667176     1.65800
Fe46       Fe  0.80589351  0.62700515  0.99974541     1.73200
Fe47       Fe  0.85952562  0.68376151  0.00475153     1.54400
O48         O  0.88755565  0.68063767  0.04442983    -0.81100
O49         O  0.79627061  0.65629907  0.46211989    -0.79400
O50         O  0.90525375  0.63307179  0.04287351    -0.83600
O51         O  0.90844595  0.62383511  0.46046727    -0.78500
O52         O  0.82397174  0.69556121  0.03500847    -0.80200
O53         O  0.81301149  0.59220131  0.46136062    -0.83000
C54         C  0.91313898  0.65071808  0.45054471     0.97800
C55         C  0.90594957  0.66015767  0.05353186     1.05200
O56         O  0.84861606  0.63994897  0.00481094    -1.12000
O57         O  0.80911389  0.59247825  0.03375781    -0.74400
O58         O  0.85795597  0.58757363  0.04658842    -0.77900
O59         O  0.89776666  0.67344276  0.46015150    -0.78600
C60         C  0.83020099  0.58098549  0.05056489     0.96700
O61         O  0.86158437  0.57822665  0.46254886    -0.76500
O62         O  0.79102824  0.65656401  0.03511013    -0.81700
C63         C  0.80805802  0.67926982  0.44830400     0.99300
C64         C  0.79944717  0.68294527  0.04424601     1.05200
O65         O  0.83403688  0.68952828  0.45613012    -0.77400
C66         C  0.83497771  0.57596764  0.45121616     1.03500
Fe67       Fe  0.60233915  0.87768203  0.25729341     1.65800
Fe68       Fe  0.67629242  0.85517147  0.24718047     1.73200
Fe69       Fe  0.61947253  0.80155941  0.25370104     1.54400
O70         O  0.58970477  0.80744195  0.29162795    -0.81100
O71         O  0.68285897  0.82392428  0.21076812    -0.79400
O72         O  0.57982710  0.85700436  0.29491114    -0.83600
O73         O  0.57334455  0.85812940  0.22435264    -0.78500
O74         O  0.65240572  0.78918141  0.28637634    -0.80200
O75         O  0.66813455  0.88822689  0.21252645    -0.83000
C76         C  0.56962185  0.83180704  0.21211142     0.97800
C77         C  0.57633030  0.82987172  0.30473908     1.05200
O78         O  0.63278110  0.84479781  0.25286170    -1.12000
O79         O  0.67594250  0.88803070  0.28294199    -0.74400
O80         O  0.62766103  0.90144382  0.29036635    -0.77900
O81         O  0.58552445  0.80912065  0.22062065    -0.78600
C82         C  0.65570598  0.90406613  0.29663434     0.96700
O83         O  0.62046855  0.90312204  0.22033819    -0.76500
O84         O  0.68997954  0.82322218  0.28078120    -0.81700
C85         C  0.67057780  0.79892651  0.20244227     0.99300
C86         C  0.67862005  0.79929294  0.29326205     1.05200
O87         O  0.64695283  0.78872728  0.21603316    -0.77400
C88         C  0.64554213  0.90494989  0.20549492     1.03500
Fe89       Fe  0.10864878  0.38700630  0.49788935     1.65800
Fe90       Fe  0.18380347  0.36664631  0.49861961     1.73200
Fe91       Fe  0.13057419  0.30578547  0.99897337     1.54400
O92         O  0.09425454  0.31115592  0.03023423    -0.81100
O93         O  0.19578663  0.33476299  0.46417239    -0.79400
O94         O  0.08717679  0.36131497  0.03669617    -0.83600
O95         O  0.08495441  0.36715287  0.46111862    -0.78500
O96         O  0.15705876  0.29463228  0.03790281    -0.80200
O97         O  0.17909325  0.39880845  0.46243352    -0.83000
C98         C  0.08094718  0.33999298  0.45164264     0.97800
C99         C  0.08143621  0.33373780  0.04384841     1.05200
O100        O  0.14201374  0.34932005  0.00069610    -1.12000
O101        O  0.17685580  0.38869242  0.04342063    -0.74400
O102        O  0.13230767  0.40914447  0.03208615    -0.77900
O103        O  0.09486602  0.31733867  0.46351481    -0.78600
C104        C  0.15668096  0.40872739  0.04825405     0.96700
O105        O  0.13061924  0.41342980  0.46424529    -0.76500
O106        O  0.19632820  0.32633798  0.03538089    -0.81700
C107        C  0.18408123  0.31102367  0.45186622     0.99300
C108        C  0.18319426  0.30293084  0.04699496     1.05200
O109        O  0.15839440  0.30077545  0.46087877    -0.77400
C110        C  0.15734239  0.41559547  0.45317815     1.03500
Fe111      Fe  0.38902486  0.11467166  0.25622088     1.65800
Fe112      Fe  0.36409105  0.18823723  0.25019658     1.73200
Fe113      Fe  0.31332057  0.12895532  0.25283837     1.54400
O114        O  0.32193059  0.09921956  0.21516367    -0.81100
O115        O  0.32893627  0.19948901  0.28114965    -0.79400
O116        O  0.36930255  0.08379149  0.22496631    -0.83600
O117        O  0.37042815  0.09306102  0.29531048    -0.78500
O118        O  0.29850349  0.16126196  0.22010616    -0.80200
O119        O  0.39301008  0.18796802  0.28910403    -0.83000
C120        C  0.34365380  0.08406753  0.30134263     0.97800
C121        C  0.34443171  0.08172584  0.20987233     1.05200
O122        O  0.35551409  0.14403869  0.25304836    -1.12000
O123        O  0.40072014  0.18283605  0.21928947    -0.74400
O124        O  0.41162369  0.13314704  0.21799449    -0.77900
O125        O  0.32109524  0.09415473  0.28580810    -0.78600
C126        C  0.41635160  0.16039764  0.20920071     0.96700
O127        O  0.41365371  0.14149772  0.28730860    -0.76500
O128        O  0.33626400  0.19395523  0.21092457    -0.81700
C129        C  0.30786328  0.18530120  0.29577459     0.99300
C130        C  0.30989678  0.18377574  0.20508930     1.05200
O131        O  0.30114932  0.15752799  0.29026761    -0.77400
C132        C  0.41254191  0.16855592  0.29813263     1.03500
Fe133      Fe  0.61249983  0.10541393  0.49144318     1.65800
Fe134      Fe  0.62842422  0.18173748  0.99934551     1.73200
Fe135      Fe  0.68114166  0.12362504  0.99892962     1.54400
O136        O  0.67405684  0.09206154  0.03542470    -0.81100
O137        O  0.66325517  0.19635436  0.46929491    -0.79400
O138        O  0.62533391  0.07887885  0.03153225    -0.83600
O139        O  0.63395278  0.08577998  0.45286608    -0.78500
O140        O  0.69379617  0.15509100  0.03317665    -0.80200
O141        O  0.60042402  0.17875678  0.46345480    -0.83000
C142        C  0.66155368  0.08088434  0.44621479     0.97800
C143        C  0.65143355  0.07586073  0.04376884     1.05200
O144        O  0.63835835  0.13757357  0.99880557    -1.12000
O145        O  0.59346453  0.17726203  0.03222689    -0.74400
O146        O  0.58240334  0.12776673  0.03496406    -0.77900
O147        O  0.68310433  0.09351023  0.46137169    -0.78600
C148        C  0.57817021  0.15513819  0.04347492     0.96700
O149        O  0.58642934  0.13001546  0.45944794    -0.76500
O150        O  0.65754622  0.19043856  0.03667141    -0.81700
C151        C  0.68628912  0.18510951  0.45520749     0.99300
C152        C  0.68259741  0.17910520  0.04553584     1.05200
O153        O  0.69612383  0.15836837  0.46072064    -0.77400
C154        C  0.58406846  0.15789911  0.45146926     1.03500
Fe155      Fe  0.88124488  0.37869805  0.24723274     1.65800
Fe156      Fe  0.80740494  0.35599783  0.24571897     1.73200
Fe157      Fe  0.86430831  0.30256769  0.24738820     1.54400
O158        O  0.89875158  0.30959370  0.21433783    -0.81100
O159        O  0.79818674  0.32833283  0.28419607    -0.79400
O160        O  0.90479144  0.35994711  0.20926404    -0.83600
O161        O  0.90920906  0.35703829  0.27965615    -0.78500
O162        O  0.83648231  0.29030035  0.21000890    -0.80200
O163        O  0.81131977  0.39255975  0.27730945    -0.83000
C164        C  0.91107548  0.33096721  0.29279618     0.97800
C165        C  0.91077213  0.33270695  0.20094495     1.05200
O166        O  0.85099297  0.34568764  0.24675330    -1.12000
O167        O  0.81221962  0.38470338  0.20701869    -0.74400
O168        O  0.85771867  0.40543347  0.21484529    -0.77900
O169        O  0.89388963  0.30899364  0.28504397    -0.78600
C170        C  0.83224268  0.40461198  0.20071395     0.96700
O171        O  0.86064395  0.40061972  0.28542788    -0.76500
O172        O  0.79659094  0.32114301  0.21420694    -0.81700
C173        C  0.80831341  0.30253796  0.29296651     0.99300
C174        C  0.80985615  0.29806966  0.20216441     1.05200
O175        O  0.83144765  0.29013715  0.28028336    -0.77400
C176        C  0.83292962  0.40580936  0.29181752     1.03500
C177        C  0.70744921  0.22520189  0.11838385    -0.11300
C178        C  0.73842373  0.22896595  0.11149299     0.11300
C179        C  0.75123066  0.21492339  0.08407705    -0.03100
C180        C  0.73209619  0.19833646  0.06365158    -0.05800
C181        C  0.70081304  0.19556198  0.06970859    -0.16600
C182        C  0.68814501  0.20894192  0.09768893     0.02300
C183        C  0.75705064  0.24720413  0.13395049     0.12300
C184        C  0.78488396  0.21757833  0.07633148     0.62900
H185        H  0.74137900  0.18788199  0.04224929     0.12300
C186        C  0.65468053  0.20575028  0.10603363     0.55000
H187        H  0.69845582  0.23561550  0.13994341     0.08100
C188        C  0.75730125  0.27951918  0.13333127    -0.05700
C189        C  0.77552767  0.29518618  0.15552279    -0.06500
C190        C  0.79315666  0.27957137  0.17821362    -0.16100
C191        C  0.79244956  0.24708560  0.17903183    -0.01600
C192        C  0.77421013  0.23153141  0.15677745    -0.09200
C193        C  0.73813621  0.29730684  0.10959851     0.65100
H194        H  0.77598040  0.31993953  0.15550721     0.10500
C195        C  0.80972393  0.22876497  0.20393509     0.63500
H196        H  0.77302932  0.20680443  0.15700311     0.07900
F197        F  0.63741178  0.22229215  0.08460238    -0.19600
F198        F  0.64830621  0.21658026  0.13649781    -0.15800
F199        F  0.64622987  0.17531322  0.10488336    -0.19300
F200        F  0.80172128  0.20397519  0.10024959    -0.22700
F201        F  0.79307555  0.24798434  0.07391709    -0.24100
F202        F  0.79221924  0.20339098  0.04766303    -0.18100
F203        F  0.80312759  0.19786027  0.20218867    -0.20600
F204        F  0.80201779  0.23875588  0.23435047    -0.21800
F205        F  0.84062166  0.23213891  0.19918005    -0.19000
F206        F  0.74278203  0.32850074  0.11217660    -0.19100
F207        F  0.70770267  0.29161067  0.11517410    -0.22900
F208        F  0.74534079  0.28863660  0.07863720    -0.24500
C209        C  0.72870923  0.24958270  0.41359578    -0.12900
C210        C  0.73724292  0.23510484  0.38506025     0.11300
C211        C  0.72885752  0.20441191  0.37933004    -0.03100
C212        C  0.71150907  0.18917455  0.40264563    -0.05800
C213        C  0.70258662  0.20369212  0.43118495    -0.16600
C214        C  0.71123366  0.23448210  0.43690967     0.02300
C215        C  0.75514984  0.25289788  0.36168749     0.12300
C216        C  0.73882979  0.18765290  0.34917417     0.62900
H217        H  0.70499293  0.16559098  0.39892750     0.12300
C218        C  0.70297910  0.25118016  0.46768157     0.55000
H219        H  0.73582851  0.27299793  0.41729164     0.08100
C220        C  0.74106703  0.27263964  0.33952614    -0.05700
C221        C  0.75942844  0.28832713  0.31751263    -0.06500
C222        C  0.79122543  0.28569187  0.31785594    -0.16100
C223        C  0.80538029  0.26732586  0.34149768    -0.01600
C224        C  0.78685423  0.25085361  0.36287242    -0.09200
C225        C  0.70689484  0.27752887  0.33957657     0.65100
H226        H  0.74897066  0.30279488  0.29966724     0.10500
C227        C  0.83967163  0.26580088  0.34500986     0.63500
H228        H  0.79693641  0.23618871  0.38079595     0.07900
F229        F  0.67189423  0.25520969  0.46943128    -0.19600
F230        F  0.71636642  0.27978806  0.46924914    -0.15800
F231        F  0.71266823  0.23453360  0.49386432    -0.19300
F232        F  0.77006460  0.18466808  0.34900669    -0.22700
F233        F  0.73007815  0.20366750  0.32223482    -0.24100
F234        F  0.72621261  0.15871235  0.34735152    -0.18100
F235        F  0.84805340  0.25137599  0.37312066    -0.20600
F236        F  0.85168995  0.29502872  0.34557467    -0.21800
F237        F  0.85212743  0.24962425  0.31972883    -0.19000
F238        F  0.69786852  0.29690227  0.31521283    -0.19100
F239        F  0.69801378  0.29041204  0.36836820    -0.22900
F240        F  0.69198660  0.24999880  0.33562839    -0.24500
C241        C  0.49325589  0.15754735  0.16831061    -0.11300
C242        C  0.48779453  0.17516679  0.14102582     0.11300
C243        C  0.45945092  0.18987164  0.13705645    -0.03100
C244        C  0.43676286  0.18521102  0.16036056    -0.05800
C245        C  0.44170480  0.16614446  0.18683447    -0.16600
C246        C  0.47084671  0.15311343  0.19174227     0.02300
C247        C  0.51041842  0.17328878  0.11494201     0.12300
C248        C  0.45316273  0.20991999  0.10813778     0.62900
H249        H  0.41456231  0.19552247  0.15747198     0.12300
C250        C  0.47863449  0.13485468  0.22160174     0.55000
H251        H  0.51500380  0.14613552  0.17042629     0.08100
C252        C  0.53844913  0.18904746  0.11566185    -0.05700
C253        C  0.55985745  0.18301861  0.09138000    -0.06500
C254        C  0.55410273  0.16141211  0.06724146    -0.16100
C255        C  0.52548374  0.14644403  0.06608257    -0.01600
C256        C  0.50438065  0.15237736  0.09044356    -0.09200
C257        C  0.54598018  0.21140450  0.14230878     0.65100
H258        H  0.58168375  0.19434445  0.09169432     0.10500
C259        C  0.51660487  0.12491628  0.03901085     0.63500
H260        H  0.48294186  0.14022601  0.09097345     0.07900
F261        F  0.50954109  0.12957316  0.22393541    -0.19600
F262        F  0.46414547  0.10684131  0.22095494    -0.15800
F263        F  0.46974112  0.15074536  0.24866918    -0.19300
F264        F  0.45383195  0.19263982  0.08042678    -0.22700
F265        F  0.47490346  0.23261444  0.10595803    -0.24100
F266        F  0.42499957  0.22380518  0.11021400    -0.18100
F267        F  0.53295725  0.09804414  0.04100791    -0.20600
F268        F  0.52211664  0.13874176  0.00975642    -0.21800
F269        F  0.48608121  0.11736637  0.04021908    -0.19000
F270        F  0.57315563  0.22641710  0.13662048    -0.19100
F271        F  0.54841045  0.19597585  0.17105159    -0.22900
F272        F  0.52340201  0.23316503  0.14497949    -0.24500
C273        C  0.51510396  0.19396934  0.41206558    -0.11300
C274        C  0.51183608  0.17509966  0.38524879     0.11300
C275        C  0.53411995  0.15274762  0.37825344    -0.03100
C276        C  0.55790072  0.14835472  0.40012313    -0.05800
C277        C  0.56051426  0.16628415  0.42786764    -0.16600
C278        C  0.53916703  0.19002570  0.43370405     0.02300
C279        C  0.48392488  0.17794088  0.36581457     0.12300
C280        C  0.53276340  0.13381837  0.34775003     0.62900
H281        H  0.57470143  0.13074044  0.39578703     0.12300
C282        C  0.54090642  0.21040230  0.46315435     0.55000
H283        H  0.49802738  0.21133034  0.41631547     0.08100
C284        C  0.45710521  0.16187193  0.37395845    -0.05700
C285        C  0.43323880  0.16118676  0.35177802    -0.06500
C286        C  0.43508666  0.17688387  0.32256079    -0.16100
C287        C  0.46070981  0.19575196  0.31607261    -0.01600
C288        C  0.48481075  0.19578138  0.33802318    -0.09200
C289        C  0.45404758  0.14506702  0.40562867     0.65100
H290        H  0.41328663  0.14736300  0.35652677     0.10500
C291        C  0.46470513  0.21560859  0.28650135     0.63500
H292        H  0.50511783  0.20895655  0.33280498     0.07900
F293        F  0.51614931  0.22975776  0.46550741    -0.19600
F294        F  0.56676589  0.22826239  0.46161245    -0.15800
F295        F  0.54162714  0.19278703  0.49060106    -0.19300
F296        F  0.53535268  0.15286525  0.32145927    -0.22700
F297        F  0.50550929  0.11821639  0.34611545    -0.24100
F298        F  0.55601940  0.11259864  0.34618871    -0.18100
F299        F  0.46731153  0.24578867  0.29598902    -0.20600
F300        F  0.44097902  0.21358960  0.26517592    -0.21800
F301        F  0.49105683  0.20731960  0.27057810    -0.19000
F302        F  0.42592160  0.13123779  0.40886468    -0.19100
F303        F  0.45739885  0.16548123  0.43066278    -0.22900
F304        F  0.47607424  0.12270602  0.40790062    -0.24500
C305        C  0.03299752  0.33721435  0.11905604    -0.11300
C306        C  0.00832551  0.31895517  0.10998742     0.11300
C307        C  0.00833500  0.30432477  0.07976414    -0.03100
C308        C  0.03358076  0.30843886  0.05947282    -0.05800
C309        C  0.05776302  0.32767491  0.06807923    -0.16600
C310        C  0.05790052  0.34190017  0.09856479     0.02300
C311        C  0.98156548  0.31870179  0.13147699     0.12300
C312        C  0.98123919  0.28577605  0.06845311     0.62900
H313        H  0.03388218  0.29798416  0.03590815     0.12300
C314        C  0.08426615  0.36165812  0.10958299     0.55000
H315        H  0.03207129  0.34861878  0.14211940     0.08100
C316        C  0.98034822  0.30075040  0.15962211    -0.05700
C317        C  0.95595508  0.30510813  0.18098383    -0.06500
C318        C  0.93369772  0.32746455  0.17550645    -0.16100
C319        C  0.93458389  0.34472026  0.14677147    -0.01600
C320        C  0.95862436  0.33994130  0.12520911    -0.09200
C321        C  0.00505599  0.27774464  0.16739959     0.65100
H322        H  0.95484920  0.29201150  0.20300107     0.10500
C323        C  0.91102139  0.36883562  0.13924935     0.63500
H324        H  0.96053322  0.35386214  0.10379923     0.07900
F325        F  0.08163562  0.36945697  0.14162570    -0.19600
F326        F  0.08526113  0.38841679  0.09204267    -0.15800
F327        F  0.11126274  0.34595407  0.10555317    -0.19300
F328        F  0.95649417  0.30477894  0.06449052    -0.22700
F329        F  0.97398521  0.26354621  0.09069301    -0.24100
F330        F  0.98701022  0.27141727  0.03949685    -0.18100
F331        F  0.91556984  0.39367702  0.15906867    -0.20600
F332        F  0.88210724  0.35720438  0.14389986    -0.21800
F333        F  0.91311060  0.37880686  0.10783656    -0.19000
F334        F  0.99907007  0.26231569  0.19567753    -0.19100
F335        F  0.03262945  0.29248062  0.17065977    -0.22900
F336        F  0.00734645  0.25641207  0.14310309    -0.24500
C337        C  0.03413895  0.34407030  0.37559010    -0.11300
C338        C  0.00928267  0.32570648  0.38416587     0.11300
C339        C  0.00935990  0.30993295  0.41376179    -0.03100
C340        C  0.03418951  0.31403597  0.43439089    -0.05800
C341        C  0.05784264  0.33435319  0.42688741    -0.16600
C342        C  0.05795192  0.34977347  0.39706847     0.02300
C343        C  0.98243035  0.32597816  0.36282655     0.12300
C344        C  0.98299610  0.28967195  0.42389699     0.62900
H345        H  0.03465644  0.30245291  0.45734621     0.12300
C346        C  0.08249862  0.37276267  0.38831249     0.55000
H347        H  0.03365143  0.35557755  0.35259724     0.08100
C348        C  0.96342171  0.35194070  0.36088091    -0.05700
C349        C  0.94029642  0.35220817  0.33792042    -0.06500
C350        C  0.93429340  0.32688761  0.31824018    -0.16100
C351        C  0.95194099  0.29990963  0.32198632    -0.01600
C352        C  0.97643595  0.30039294  0.34363491    -0.09200
C353        C  0.96729153  0.37919696  0.38316340     0.65100
H354        H  0.92683768  0.37261653  0.33491438     0.10500
C355        C  0.94566089  0.27101458  0.30294817     0.63500
H356        H  0.99134467  0.28083668  0.34563501     0.07900
F357        F  0.08024255  0.38218793  0.35675845    -0.19600
F358        F  0.11088307  0.35991596  0.39247350    -0.15800
F359        F  0.07982730  0.39835109  0.40757523    -0.19300
F360        F  0.98117549  0.26468660  0.40374015    -0.22700
F361        F  0.95607979  0.30584777  0.42252702    -0.24100
F362        F  0.98636301  0.27903308  0.45490868    -0.18100
F363        F  0.96641660  0.24816132  0.30961114    -0.20600
F364        F  0.94716502  0.27715691  0.27048615    -0.21800
F365        F  0.91713908  0.25996958  0.31066727    -0.19000
F366        F  0.94405920  0.40020345  0.37969680    -0.19100
F367        F  0.99434679  0.39400745  0.37676866    -0.22900
F368        F  0.96716677  0.36943809  0.41466636    -0.24500
C369        C  0.28127088  0.22496981  0.13050247    -0.11300
C370        C  0.25220964  0.23388720  0.14072995     0.11300
C371        C  0.24132468  0.22425105  0.17104566    -0.03100
C372        C  0.26095481  0.20770700  0.19111689    -0.05800
C373        C  0.29060111  0.19995047  0.18150439    -0.16600
C374        C  0.30074751  0.20796878  0.15034945     0.02300
C375        C  0.23344922  0.25230655  0.11835816     0.12300
C376        C  0.20902001  0.23089358  0.18188316     0.62900
H377        H  0.25336080  0.20088862  0.21476826     0.12300
C378        C  0.33146786  0.19780177  0.13767213     0.55000
H379        H  0.28865377  0.23172910  0.10674910     0.08100
C380        C  0.23663091  0.28439293  0.11573044    -0.05700
C381        C  0.21916768  0.30006690  0.09278477    -0.06500
C382        C  0.19930999  0.28464045  0.07192456    -0.16100
C383        C  0.19695177  0.25221422  0.07409805    -0.01600
C384        C  0.21391258  0.23677587  0.09759750    -0.09200
C385        C  0.25886716  0.30184908  0.13665082     0.65100
H386        H  0.22120087  0.32463595  0.09071177     0.10500
C387        C  0.17790238  0.23352630  0.05093984     0.63500
H388        H  0.21253836  0.21214784  0.09966104     0.07900
F389        F  0.35434939  0.21269499  0.15398573    -0.19600
F390        F  0.33483912  0.20423970  0.10537392    -0.15800
F391        F  0.33460360  0.16657763  0.14163053    -0.19300
F392        F  0.18880448  0.21682562  0.16136423    -0.22700
F393        F  0.20369757  0.26199571  0.18177119    -0.24100
F394        F  0.20341330  0.22014116  0.21254402    -0.18100
F395        F  0.18268228  0.20244850  0.05451413    -0.20600
F396        F  0.18538664  0.24109926  0.01971912    -0.21800
F397        F  0.14740857  0.23908713  0.05629966    -0.19000
F398        F  0.25834987  0.33290675  0.13041203    -0.19100
F399        F  0.28805077  0.29148122  0.13108083    -0.22900
F400        F  0.25174621  0.29762024  0.16861389    -0.24500
C401        C  0.28038355  0.22453340  0.37174706    -0.11300
C402        C  0.25320918  0.23771849  0.36099261     0.11300
C403        C  0.24470747  0.23448998  0.32845914    -0.03100
C404        C  0.26264012  0.21605688  0.30826187    -0.05800
C405        C  0.28951034  0.20255964  0.31914950    -0.16600
C406        C  0.29918927  0.20753079  0.35097170     0.02300
C407        C  0.23492886  0.25613054  0.38398227     0.12300
C408        C  0.21743515  0.25123031  0.31492112     0.62900
H409        H  0.25634897  0.21276537  0.28346659     0.12300
C410        C  0.32958052  0.19556724  0.36241756     0.55000
H411        H  0.28700621  0.22824044  0.39637182     0.08100
C412        C  0.21315429  0.24268672  0.40457018    -0.05700
C413        C  0.19654359  0.26165539  0.42549528    -0.06500
C414        C  0.20160375  0.29342620  0.42721980    -0.16100
C415        C  0.22377600  0.30677292  0.40652402    -0.01600
C416        C  0.24005871  0.28768323  0.38536102    -0.09200
C417        C  0.20823080  0.20832111  0.40513473     0.65100
H418        H  0.18005788  0.25147519  0.44156527     0.10500
C419        C  0.23028271  0.34089425  0.40611551     0.63500
H420        H  0.25726710  0.29720896  0.36966805     0.07900
F421        F  0.33458934  0.20243447  0.39434188    -0.19600
F422        F  0.35265212  0.20870017  0.34453632    -0.15800
F423        F  0.33070207  0.16417425  0.35879187    -0.19300
F424        F  0.22143809  0.28238941  0.31836982    -0.22700
F425        F  0.19132098  0.24254091  0.33095120    -0.24100
F426        F  0.21350668  0.24518006  0.28263792    -0.18100
F427        F  0.24900613  0.34904054  0.38078069    -0.20600
F428        F  0.24469986  0.34936583  0.43411731    -0.21800
F429        F  0.20345416  0.35701588  0.40300998    -0.19000
F430        F  0.18495709  0.20004817  0.42578782    -0.19100
F431        F  0.23448485  0.19402185  0.41518813    -0.22900
F432        F  0.20092849  0.19786553  0.37488310    -0.24500
C433        C  0.62874929  0.96098546  0.13758743    -0.11300
C434        C  0.65648106  0.97648383  0.13491019     0.11300
C435        C  0.68101773  0.96787605  0.15476606    -0.03100
C436        C  0.67674281  0.94386163  0.17688147    -0.05800
C437        C  0.64881485  0.92843024  0.17981476    -0.16600
C438        C  0.62458989  0.93659077  0.15909424     0.02300
C439        C  0.65845516  0.00198898  0.11132560     0.12300
C440        C  0.71147941  0.98404694  0.15269849     0.62900
H441        H  0.69509934  0.93738506  0.19260867     0.12300
C442        C  0.59470534  0.91922792  0.15867992     0.55000
H443        H  0.61021360  0.96824359  0.12244459     0.08100
C444        C  0.66120764  0.99649348  0.07794917    -0.05700
C445        C  0.65990268  0.02150271  0.05674555    -0.06500
C446        C  0.65553799  0.05144677  0.06784875    -0.16100
C447        C  0.65281624  0.05699438  0.10109933    -0.01600
C448        C  0.65436725  0.03205287  0.12241367    -0.09200
C449        C  0.66493953  0.96431019  0.06476205     0.65100
H450        H  0.66150040  0.01781122  0.03113045     0.10500
C451        C  0.64733970  0.08904916  0.11366600     0.63500
H452        H  0.65149511  0.03568987  0.14790902     0.07900
F453        F  0.60021783  0.88812269  0.15747681    -0.19600
F454        F  0.57737949  0.92671632  0.13222756    -0.15800
F455        F  0.57793619  0.92614719  0.18579526    -0.19300
F456        F  0.70799330  0.01466286  0.15992365    -0.22700
F457        F  0.72324745  0.98130221  0.12209298    -0.24100
F458        F  0.73233306  0.97187651  0.17387553    -0.18100
F459        F  0.64610947  0.08981534  0.14680424    -0.20600
F460        F  0.62008359  0.09997152  0.10198981    -0.21800
F461        F  0.67058875  0.10811112  0.10370717    -0.19000
F462        F  0.66885879  0.96428828  0.03183966    -0.19100
F463        F  0.63947517  0.94704035  0.07170752    -0.22900
F464        F  0.69003150  0.95056361  0.07828451    -0.24500
C465        C  0.69131166  0.97376767  0.33647584    -0.11300
C466        C  0.67231336  0.97696842  0.36333173     0.11300
C467        C  0.64968602  0.95463907  0.36954261    -0.03100
C468        C  0.64646388  0.93025535  0.34804058    -0.05800
C469        C  0.66460737  0.92748290  0.32052628    -0.16600
C470        C  0.68784347  0.94935935  0.31472056     0.02300
C471        C  0.67434102  0.00563514  0.38210596     0.12300
C472        C  0.62764240  0.95549456  0.39766826     0.62900
H473        H  0.62864944  0.91356418  0.35228840     0.12300
C474        C  0.70763491  0.94810707  0.28483636     0.55000
H475        H  0.70822507  0.99129971  0.33210510     0.08100
C476        C  0.69203978  0.00803336  0.41016743    -0.05700
C477        C  0.68922748  0.03449541  0.42917335    -0.06500
C478        C  0.66861784  0.05781327  0.42130382    -0.16100
C479        C  0.65259709  0.05624883  0.39193893    -0.01600
C480        C  0.65586081  0.03006218  0.37273852    -0.09200
C481        C  0.71222761  0.98191411  0.42082704     0.65100
H482        H  0.70137432  0.03607629  0.45159491     0.10500
C483        C  0.63051906  0.08090518  0.38161578     0.63500
H484        H  0.64256383  0.02769535  0.35111499     0.07900
F485        F  0.72520997  0.92195287  0.28522403    -0.19600
F486        F  0.72702678  0.97295001  0.28276486    -0.15800
F487        F  0.68955254  0.94805564  0.25782582    -0.19300
F488        F  0.59827559  0.95672097  0.38614551    -0.22700
F489        F  0.63182314  0.98007483  0.41793571    -0.24100
F490        F  0.63093152  0.92906726  0.41547550    -0.18100
F491        F  0.64150488  0.10960897  0.38931204    -0.20600
F492        F  0.60291949  0.07630185  0.39676144    -0.21800
F493        F  0.62592003  0.08016534  0.34882502    -0.19000
F494        F  0.72813962  0.98909257  0.44835704    -0.19100
F495        F  0.73296928  0.97507046  0.39692845    -0.22900
F496        F  0.69471121  0.95635116  0.42705887    -0.24500
C497        C  0.82906705  0.53353479  0.12634450    -0.11300
C498        C  0.81681447  0.50622162  0.11455652     0.11300
C499        C  0.80438361  0.50518472  0.08340978    -0.03100
C500        C  0.80738377  0.53110285  0.06374560    -0.05800
C501        C  0.82254160  0.55741533  0.07445918    -0.16600
C502        C  0.83249924  0.55925435  0.10660069     0.02300
C503        C  0.81991138  0.47851247  0.13450957     0.12300
C504        C  0.78867073  0.47664689  0.07100416     0.62900
H505        H  0.79940771  0.53041115  0.03918780     0.12300
C506        C  0.84786540  0.58766517  0.11963117     0.55000
H507        H  0.83786782  0.53384933  0.15059932     0.08100
C508        C  0.84728553  0.46162200  0.13477581    -0.05700
C509        C  0.84959688  0.43675546  0.15572283    -0.06500
C510        C  0.82591763  0.42844952  0.17646924    -0.16100
C511        C  0.79834605  0.44527622  0.17594593    -0.01600
C512        C  0.79589234  0.47018286  0.15478976    -0.09200
C513        C  0.87419796  0.47039273  0.11368535     0.65100
H514        H  0.87076479  0.42375689  0.15670426     0.10500
C515        C  0.77215473  0.43792315  0.19844979     0.63500
H516        H  0.77531191  0.48382804  0.15425795     0.07900
F517        F  0.87715803  0.58936810  0.10778587    -0.19600
F518        F  0.84922903  0.58723165  0.15276332    -0.15800
F519        F  0.83196187  0.61350749  0.11064489    -0.19300
F520        F  0.76398825  0.46992435  0.09032244    -0.22700
F521        F  0.80844006  0.45213827  0.07125465    -0.24100
F522        F  0.77836182  0.48042329  0.03997764    -0.18100
F523        F  0.74913370  0.45933572  0.19645977    -0.20600
F524        F  0.78223751  0.43751577  0.22975206    -0.21800
F525        F  0.76007652  0.40969981  0.19076139    -0.19000
F526        F  0.89814082  0.45018403  0.11695334    -0.19100
F527        F  0.88451223  0.49915509  0.12195595    -0.22900
F528        F  0.86575181  0.47052159  0.08184401    -0.24500
C529        C  0.84361126  0.52387576  0.37820933    -0.11300
C530        C  0.81822731  0.50479610  0.38156969     0.11300
C531        C  0.79749899  0.50993056  0.40703691    -0.03100
C532        C  0.80305441  0.53434529  0.42839244    -0.05800
C533        C  0.82919704  0.55274775  0.42579310    -0.16600
C534        C  0.84960823  0.54776343  0.39985953     0.02300
C535        C  0.81624691  0.47803510  0.35960049     0.12300
C536        C  0.77042517  0.48899323  0.41241931     0.62900
H537        H  0.78773497  0.53829681  0.44832850     0.12300
C538        C  0.87769893  0.56739205  0.39481284     0.55000
H539        H  0.85940752  0.51914099  0.35885993     0.08100
C540        C  0.80650468  0.48083909  0.32739793    -0.05700
C541        C  0.81108615  0.45606271  0.30633823    -0.06500
C542        C  0.82549083  0.42914888  0.31632883    -0.16100
C543        C  0.83356351  0.42570011  0.34887684    -0.01600
C544        C  0.82886234  0.45033951  0.37003302    -0.09200
C545        C  0.79237022  0.51018092  0.31500862     0.65100
H546        H  0.80489442  0.45815077  0.28137015     0.10500
C547        C  0.84772856  0.39636643  0.36093906     0.63500
H548        H  0.83648856  0.44873715  0.39462582     0.07900
F549        F  0.87010563  0.59801128  0.39666682    -0.19600
F550        F  0.89083578  0.56233242  0.36508032    -0.15800
F551        F  0.89909145  0.56062542  0.41787739    -0.19300
F552        F  0.78043690  0.46008996  0.42045039    -0.22700
F553        F  0.75315985  0.48706200  0.38495173    -0.24100
F554        F  0.75183867  0.49944773  0.43690842    -0.18100
F555        F  0.84978707  0.39595947  0.39401846    -0.20600
F556        F  0.87660164  0.39351592  0.34837879    -0.21800
F557        F  0.83041167  0.37155339  0.35155694    -0.19000
F558        F  0.78255915  0.50715981  0.28368556    -0.19100
F559        F  0.81338763  0.53360648  0.31601950    -0.22900
F560        F  0.76758779  0.51807145  0.33361841    -0.24500
C561        C  0.71174494  0.76556815  0.36935297    -0.11300
C562        C  0.73606501  0.74847124  0.35682940     0.11300
C563        C  0.74051428  0.74704724  0.32319331    -0.03100
C564        C  0.72128248  0.76422720  0.30327789    -0.05800
C565        C  0.69742742  0.78175256  0.31588482    -0.16600
C566        C  0.69217344  0.78226826  0.34929340     0.02300
C567        C  0.75557408  0.73110128  0.37948355     0.12300
C568        C  0.76531728  0.72737183  0.30841276     0.62900
H569        H  0.72449720  0.76390001  0.27750063     0.12300
C570        C  0.66618548  0.80069186  0.36340989     0.55000
H571        H  0.70821130  0.76565205  0.39507907     0.08100
C572        C  0.77936381  0.74504505  0.39686504    -0.05700
C573        C  0.79627095  0.72711522  0.41843469    -0.06500
C574        C  0.79022604  0.69577980  0.42317308    -0.16100
C575        C  0.76673937  0.68177914  0.40486520    -0.01600
C576        C  0.74949690  0.69999160  0.38391683    -0.09200
C577        C  0.78670598  0.77876279  0.39275550     0.65100
H578        H  0.81403297  0.73777240  0.43235260     0.10500
C579        C  0.75988736  0.64776254  0.40656468     0.63500
H580        H  0.73086141  0.69004358  0.37066571     0.07900
F581        F  0.66555197  0.79911067  0.39652185    -0.19600
F582        F  0.63885396  0.78962705  0.35203095    -0.15800
F583        F  0.66918931  0.83104449  0.35469657    -0.19300
F584        F  0.76052138  0.69703310  0.31608529    -0.22700
F585        F  0.79335073  0.73630730  0.31983531    -0.24100
F586        F  0.76589398  0.72969431  0.27533597    -0.18100
F587        F  0.74604600  0.64088296  0.43547099    -0.20600
F588        F  0.78646811  0.63119131  0.40336649    -0.21800
F589        F  0.74055201  0.63856558  0.38231728    -0.19000
F590        F  0.81113061  0.78764235  0.41134872    -0.19100
F591        F  0.76197291  0.79627837  0.40165048    -0.22900
F592        F  0.79382534  0.78477870  0.36109946    -0.24500
C593        C  0.70231860  0.73359925  0.15136936    -0.11300
C594        C  0.72047887  0.74998003  0.12979057     0.11300
C595        C  0.71958032  0.78227532  0.12976662    -0.03100
C596        C  0.70203747  0.79719926  0.15319890    -0.05800
C597        C  0.68511817  0.78095616  0.17622958    -0.16600
C598        C  0.68464532  0.74839238  0.17488558     0.02300
C599        C  0.74114072  0.73257061  0.10834219     0.12300
C600        C  0.73713081  0.80090305  0.10518739     0.62900
H601        H  0.70161465  0.82192913  0.15385119     0.12300
C602        C  0.66670296  0.72899817  0.19857517     0.55000
H603        H  0.70286057  0.70888015  0.15010306     0.08100
C604        C  0.76895445  0.72028465  0.11948760    -0.05700
C605        C  0.78747728  0.70394564  0.09789427    -0.06500
C606        C  0.77917714  0.70024853  0.06577668    -0.16100
C607        C  0.75206721  0.71369275  0.05436474    -0.01600
C608        C  0.73293089  0.72884527  0.07620093    -0.09200
C609        C  0.77911374  0.72475446  0.15391133     0.65100
H610        H  0.80858940  0.69389534  0.10588062     0.10500
C611        C  0.74437883  0.71348664  0.01895708     0.63500
H612        H  0.71164395  0.73851195  0.06823076     0.07900
F613        F  0.67514198  0.73609441  0.22959584    -0.19600
F614        F  0.67168836  0.69804846  0.19408196    -0.15800
F615        F  0.63597035  0.73420199  0.19474609    -0.19300
F616        F  0.72534334  0.79568963  0.07504031    -0.22700
F617        F  0.76744315  0.79274664  0.10536785    -0.24100
F618        F  0.73531996  0.83194475  0.11131841    -0.18100
F619        F  0.71781890  0.72923352  0.01266526    -0.20600
F620        F  0.74088721  0.68381300  0.00824346    -0.21800
F621        F  0.76761603  0.72737253  0.00200608    -0.19000
F622        F  0.80798024  0.71329193  0.15895111    -0.19100
F623        F  0.75940104  0.70986686  0.17449219    -0.22900
F624        F  0.77949407  0.75555335  0.16134140    -0.24500
C625        C  0.31701063  0.97997359  0.09701014    -0.11300
C626        C  0.34251553  0.98435469  0.11634666     0.11300
C627        C  0.36702981  0.96354848  0.11444403    -0.03100
C628        C  0.36602777  0.94014728  0.09129201    -0.05800
C629        C  0.34090931  0.93618684  0.07093362    -0.16600
C630        C  0.31546933  0.95601701  0.07449716     0.02300
C631        C  0.34223151  0.01028221  0.13937407     0.12300
C632        C  0.39393892  0.96592007  0.13700204     0.62900
H633        H  0.38508265  0.92465134  0.08887489     0.12300
C634        C  0.28700461  0.95263697  0.05439403     0.55000
H635        H  0.29819960  0.99573380  0.09977764     0.08100
C636        C  0.35297068  0.03977908  0.13099999    -0.05700
C637        C  0.35319568  0.06279055  0.15466493    -0.06500
C638        C  0.34181395  0.05736440  0.18557900    -0.16100
C639        C  0.32977814  0.02834239  0.19342750    -0.01600
C640        C  0.33027259  0.00512821  0.17009282    -0.09200
C641        C  0.36292705  0.04720300  0.09697787     0.65100
H642        H  0.36194555  0.08531277  0.14916497     0.10500
C643        C  0.31687605  0.02201258  0.22652329     0.63500
H644        H  0.32159729  0.98260183  0.17569531     0.07900
F645        F  0.26621504  0.97566725  0.06042189    -0.19600
F646        F  0.27302877  0.92510075  0.06129071    -0.15800
F647        F  0.29444396  0.95375815  0.02223780    -0.19300
F648        F  0.38403138  0.96318826  0.16833833    -0.22700
F649        F  0.40825625  0.99380318  0.13330902    -0.24100
F650        F  0.41513304  0.94317588  0.13135053    -0.18100
F651        F  0.29344576  0.04214985  0.23294913    -0.20600
F652        F  0.33933806  0.02570651  0.24924786    -0.21800
F653        F  0.30557670  0.99258367  0.22906936    -0.19000
F654        F  0.37471357  0.07646115  0.09461434    -0.19100
F655        F  0.33819657  0.04511853  0.07681531    -0.22900
F656        F  0.38498610  0.02700631  0.08664899    -0.24500
C657        C  0.33564242  0.95469082  0.38081405    -0.11300
C658        C  0.33265512  0.98446331  0.39305965     0.11300
C659        C  0.32882030  0.98890205  0.42647469    -0.03100
C660        C  0.33011199  0.96330346  0.44676661    -0.05800
C661        C  0.33511396  0.93388180  0.43460804    -0.16600
C662        C  0.33734902  0.92920668  0.40125363     0.02300
C663        C  0.33564890  0.01056715  0.37047822     0.12300
C664        C  0.32377415  0.02047616  0.44065657     0.62900
H665        H  0.32792007  0.96609744  0.47247604     0.12300
C666        C  0.34205477  0.89743721  0.38777226     0.55000
H667        H  0.33781908  0.95174101  0.35512944     0.08100
C668        C  0.36428806  0.01978316  0.35848040    -0.05700
C669        C  0.36557079  0.04382249  0.33624777    -0.06500
C670        C  0.33944422  0.05981404  0.32636760    -0.16100
C671        C  0.31086921  0.05157383  0.34009270    -0.01600
C672        C  0.30951387  0.02637629  0.36112770    -0.09200
C673        C  0.39350881  0.00464456  0.36955949     0.65100
H674        H  0.38740572  0.05010811  0.32620487     0.10500
C675        C  0.28195955  0.06943209  0.33368072     0.63500
H676        H  0.28785968  0.01876067  0.37064706     0.07900
F677        F  0.36887817  0.88564584  0.39947477    -0.19600
F678        F  0.34366584  0.89750392  0.35464864    -0.15800
F679        F  0.31823220  0.87874097  0.39700594    -0.19300
F680        F  0.29648608  0.03212462  0.42997452    -0.22700
F681        F  0.34703525  0.03988745  0.43156545    -0.24100
F682        F  0.32277467  0.01976743  0.47381059    -0.18100
F683        F  0.25842000  0.06037098  0.35363239    -0.20600
F684        F  0.27275585  0.06491232  0.30240987    -0.21800
F685        F  0.28696703  0.10022854  0.33908227    -0.19000
F686        F  0.41897509  0.01843362  0.35642868    -0.19100
F687        F  0.39384830  0.97424119  0.36064355    -0.22900
F688        F  0.39569288  0.00666802  0.40252995    -0.24500
C689        C  0.44838674  0.82604785  0.12064410    -0.11300
C690        C  0.47899446  0.82330011  0.11171601     0.11300
C691        C  0.48698496  0.81953841  0.07904995    -0.03100
C692        C  0.46390577  0.82114646  0.05596588    -0.05800
C693        C  0.43353569  0.82571774  0.06486714    -0.16600
C694        C  0.42535044  0.82759891  0.09755158     0.02300
C695        C  0.50218364  0.82572818  0.13715556     0.12300
C696        C  0.51966635  0.81417207  0.06872376     0.62900
H697        H  0.46944222  0.81966236  0.03067754     0.12300
C698        C  0.39257038  0.83241970  0.10766030     0.55000
H699        H  0.44286325  0.82821376  0.14588313     0.08100
C700        C  0.51231332  0.85437350  0.14846847    -0.05700
C701        C  0.53420981  0.85504872  0.17281102    -0.06500
C702        C  0.54611681  0.82814385  0.18649913    -0.16100
C703        C  0.53500307  0.79931897  0.17550057    -0.01600
C704        C  0.51320469  0.79884565  0.15090007    -0.09200
C705        C  0.49976294  0.88412116  0.13508387     0.65100
H706        H  0.54208709  0.87692070  0.18135222     0.10500
C707        C  0.54531024  0.76902217  0.18953529     0.63500
H708        H  0.50444370  0.77735856  0.14200435     0.07900
F709        F  0.38945356  0.83384525  0.14064149    -0.19600
F710        F  0.37496280  0.80848596  0.09660045    -0.15800
F711        F  0.38188094  0.85950263  0.09492567    -0.19300
F712        F  0.53019720  0.78738240  0.08220290    -0.22700
F713        F  0.53780921  0.83813371  0.07862582    -0.24100
F714        F  0.52239575  0.81163391  0.03576535    -0.18100
F715        F  0.54096665  0.76908000  0.22238647    -0.20600
F716        F  0.57563460  0.76427353  0.18242748    -0.21800
F717        F  0.52915886  0.74456200  0.17721175    -0.19000
F718        F  0.51347803  0.90945957  0.14864693    -0.19100
F719        F  0.46896905  0.88595072  0.14128398    -0.22900
F720        F  0.50447798  0.88539847  0.10235322    -0.24500
C721        C  0.52332912  0.83925370  0.37669629    -0.11300
C722        C  0.50625337  0.81225553  0.37485935     0.11300
C723        C  0.51390305  0.78992659  0.35165617    -0.03100
C724        C  0.53768082  0.79620989  0.32997530    -0.05800
C725        C  0.55422312  0.82374209  0.33108653    -0.16600
C726        C  0.54795657  0.84497843  0.35601270     0.02300
C727        C  0.47985877  0.80904630  0.39696241     0.12300
C728        C  0.49692176  0.75976866  0.34951236     0.62900
H729        H  0.54277781  0.77995443  0.31113256     0.12300
C730        C  0.56774780  0.87285674  0.36191251     0.55000
H731        H  0.51697337  0.85612533  0.39451375     0.08100
C732        C  0.48356074  0.80564324  0.43046564    -0.05700
C733        C  0.45798739  0.80892728  0.45041963    -0.06500
C734        C  0.42895683  0.81417353  0.43789855    -0.16100
C735        C  0.42474948  0.81411875  0.40425167    -0.01600
C736        C  0.45055635  0.81247311  0.38438619    -0.09200
C737        C  0.51430643  0.79876516  0.44514581     0.65100
H738        H  0.46063819  0.80844315  0.47625969     0.10500
C739        C  0.39411100  0.81573706  0.38786372     0.63500
H740        H  0.44784686  0.81488068  0.35867494     0.07900
F741        F  0.56164639  0.88609757  0.39139502    -0.19600
F742        F  0.56277183  0.89466860  0.33859985    -0.15800
F743        F  0.59798103  0.86431602  0.36165760    -0.19300
F744        F  0.46762852  0.76470279  0.33905493    -0.22700
F745        F  0.49596885  0.74589501  0.37924385    -0.24100
F746        F  0.51080063  0.73976890  0.32832271    -0.18100
F747        F  0.39387036  0.84002324  0.36670059    -0.20600
F748        F  0.37009700  0.81911011  0.40896180    -0.21800
F749        F  0.38964107  0.78907385  0.37069414    -0.19000
F750        F  0.51180817  0.79178812  0.47740696    -0.19100
F751        F  0.53333035  0.82370759  0.44214545    -0.22900
F752        F  0.52731220  0.77396312  0.42984010    -0.24500
C753        C  0.17295166  0.53963885  0.12500679    -0.11300
C754        C  0.17123946  0.50977233  0.13718284     0.11300
C755        C  0.17024930  0.50491498  0.17071359    -0.03100
C756        C  0.16929731  0.53048946  0.19103292    -0.05800
C757        C  0.16868272  0.56024127  0.17869310    -0.16600
C758        C  0.17084555  0.56517478  0.14537383     0.02300
C759        C  0.16747120  0.48412730  0.11432947     0.12300
C760        C  0.16896519  0.47292197  0.18482460     0.62900
H761        H  0.16755931  0.52748034  0.21673369     0.12300
C762        C  0.16955817  0.59722865  0.13168262     0.55000
H763        H  0.17411130  0.54272602  0.09928104     0.08100
C764        C  0.13900277  0.47760089  0.10045168    -0.05700
C765        C  0.13650015  0.45221015  0.08007689    -0.06500
C766        C  0.16148858  0.43327090  0.07275693    -0.16100
C767        C  0.19010255  0.43982647  0.08726604    -0.01600
C768        C  0.19245162  0.46548526  0.10753002    -0.09200
C769        C  0.11139047  0.49758832  0.10694917     0.65100
H770        H  0.11474453  0.44731047  0.06930781     0.10500
C771        C  0.21827820  0.42040877  0.08167844     0.63500
H772        H  0.21391781  0.47128530  0.11852645     0.07900
F773        F  0.14197520  0.61050166  0.13937589    -0.19600
F774        F  0.17262070  0.59723401  0.09866634    -0.15800
F775        F  0.19272613  0.61470539  0.14444955    -0.19300
F776        F  0.19509022  0.45712437  0.17688050    -0.22700
F777        F  0.14409625  0.45734813  0.17296525    -0.24100
F778        F  0.16656266  0.47348477  0.21790312    -0.18100
F779        F  0.24308394  0.43118391  0.09854116    -0.20600
F780        F  0.22596860  0.42059201  0.04950723    -0.21800
F781        F  0.21289445  0.39077444  0.09176366    -0.19000
F782        F  0.08539378  0.48588469  0.09302349    -0.19100
F783        F  0.11620463  0.52647369  0.09455030    -0.22900
F784        F  0.10621961  0.49985555  0.13956246    -0.24500
C785        C  0.19027712  0.52127595  0.34412171    -0.11300
C786        C  0.16439881  0.51418224  0.36230498     0.11300
C787        C  0.13794146  0.53224503  0.35934445    -0.03100
C788        C  0.13777044  0.55594507  0.33666142    -0.05800
C789        C  0.16329216  0.56255845  0.31752790    -0.16600
C790        C  0.19027253  0.54523948  0.32158179     0.02300
C791        C  0.16556215  0.48767558  0.38441347     0.12300
C792        C  0.11013957  0.52667210  0.38027701     0.62900
H793        H  0.11747840  0.56961599  0.33361085     0.12300
C794        C  0.21848812  0.55102688  0.30143351     0.55000
H795        H  0.21039706  0.50740903  0.34743009     0.08100
C796        C  0.15860428  0.45760653  0.37411939    -0.05700
C797        C  0.15725002  0.43407624  0.39711658    -0.06500
C798        C  0.16319224  0.43988572  0.42951815    -0.16100
C799        C  0.17160403  0.46962439  0.43945363    -0.01600
C800        C  0.17284590  0.49312074  0.41654892    -0.09200
C801        C  0.15248959  0.45059746  0.33908123     0.65100
H802        H  0.15092617  0.41111817  0.39014068     0.10500
C803        C  0.17833814  0.47650590  0.47434572     0.63500
H804        H  0.17857257  0.51620713  0.42368590     0.07900
F805        F  0.24110406  0.52991335  0.30760318    -0.19600
F806        F  0.22999418  0.57972623  0.30811800    -0.15800
F807        F  0.21135862  0.54911798  0.26924468    -0.19300
F808        F  0.11744714  0.53173638  0.41201075    -0.22700
F809        F  0.10009687  0.49693029  0.37683864    -0.24100
F810        F  0.08639609  0.54593346  0.37240903    -0.18100
F811        F  0.20188999  0.45819401  0.48473729    -0.20600
F812        F  0.15282138  0.47075852  0.49277541    -0.21800
F813        F  0.18663550  0.50670675  0.47893872    -0.19000
F814        F  0.14591554  0.42000134  0.33427781    -0.19100
F815        F  0.17781737  0.45781511  0.32092547    -0.22900
F816        F  0.12812589  0.46754562  0.32831039    -0.24500
C817        C  0.98027887  0.68796265  0.08921133    -0.11300
C818        C  0.98098739  0.67091327  0.11745495     0.11300
C819        C  0.95519961  0.65387867  0.12697661    -0.03100
C820        C  0.93032618  0.65215565  0.10594422    -0.05800
C821        C  0.93021344  0.66782716  0.07655431    -0.16600
C822        C  0.95539742  0.68680473  0.06836045     0.02300
C823        C  0.00954883  0.67053395  0.13601117     0.12300
C824        C  0.95394450  0.63808086  0.15937880     0.62900
H825        H  0.91089555  0.63824064  0.11208359     0.12300
C826        C  0.95858587  0.70544668  0.03781865     0.55000
H827        H  0.99999312  0.70151638  0.08278804     0.08100
C828        C  0.03241591  0.64849812  0.13013684    -0.05700
C829        C  0.05772410  0.64772133  0.15049939    -0.06500
C830        C  0.06111797  0.66875139  0.17564523    -0.16100
C831        C  0.03921797  0.69222504  0.17994669    -0.01600
C832        C  0.01362740  0.69260341  0.15989593    -0.09200
C833        C  0.02994235  0.62584691  0.10262517     0.65100
H834        H  0.07483011  0.63020162  0.14741417     0.10500
C835        C  0.04202378  0.71593795  0.20637324     0.63500
H836        H  0.99612288  0.70967365  0.16315745     0.07900
F837        F  0.98429336  0.69613532  0.02134627    -0.19600
F838        F  0.96185571  0.73594723  0.04581462    -0.15800
F839        F  0.93428651  0.70295291  0.01741922    -0.19300
F840        F  0.95549799  0.65980032  0.18339251    -0.22700
F841        F  0.97798657  0.61807977  0.16270190    -0.24100
F842        F  0.92733338  0.62165848  0.16341039    -0.18100
F843        F  0.06756830  0.73366833  0.20113723    -0.20600
F844        F  0.04423670  0.70163301  0.23579802    -0.21800
F845        F  0.01715071  0.73523676  0.20748306    -0.19000
F846        F  0.05469530  0.60640233  0.10127493    -0.19100
F847        F  0.02846793  0.64146978  0.07390302    -0.22900
F848        F  0.00412229  0.60817775  0.10604333    -0.24500
C849        C  0.99017773  0.64911923  0.40924917    -0.11300
C850        C  0.98478616  0.66781935  0.38272408     0.11300
C851        C  0.95586346  0.68124654  0.37844979    -0.03100
C852        C  0.93314211  0.67558671  0.40150756    -0.05800
C853        C  0.93822477  0.65597970  0.42755751    -0.16600
C854        C  0.96740583  0.64279656  0.43187050     0.02300
C855        C  0.00854783  0.66853911  0.35759842     0.12300
C856        C  0.94886776  0.70071418  0.34928539     0.62900
H857        H  0.91079018  0.68559375  0.39876560     0.12300
C858        C  0.97473829  0.62182177  0.45983669     0.55000
H859        H  0.01226421  0.63836480  0.41129984     0.08100
C860        C  0.03505098  0.68667626  0.35996409    -0.05700
C861        C  0.05800316  0.68304325  0.33666419    -0.06500
C862        C  0.05549294  0.66119544  0.31210860    -0.16100
C863        C  0.02850299  0.64342993  0.30961631    -0.01600
C864        C  0.00564880  0.64742655  0.33267491    -0.09200
C865        C  0.03935238  0.70904890  0.38739722     0.65100
H866        H  0.07860724  0.69646056  0.33813495     0.10500
C867        C  0.02328742  0.62043762  0.28279196     0.63500
H868        H  0.98543005  0.63333689  0.33205456     0.07900
F869        F  0.00561042  0.61637478  0.46224825    -0.19600
F870        F  0.96031075  0.59404200  0.45573077    -0.15800
F871        F  0.96529012  0.63478954  0.48834702    -0.19300
F872        F  0.95089227  0.68318248  0.32180800    -0.22700
F873        F  0.96930215  0.72459583  0.34713023    -0.24100
F874        F  0.91992571  0.71295575  0.35077264    -0.18100
F875        F  0.04200058  0.59539582  0.28683881    -0.20600
F876        F  0.02910727  0.63388668  0.25341759    -0.21800
F877        F  0.99362903  0.60991047  0.28238787    -0.19000
F878        F  0.06602033  0.72555846  0.38420481    -0.19100
F879        F  0.04042815  0.69340062  0.41611596    -0.22900
F880        F  0.01550195  0.72951154  0.38836391    -0.24500
C881        C  0.25988553  0.78913233  0.11402887    -0.11300
C882        C  0.25488701  0.75806174  0.10778443     0.11300
C883        C  0.26536159  0.74500422  0.07879837    -0.03100
C884        C  0.28233026  0.76332878  0.05766273    -0.05800
C885        C  0.28788916  0.79437817  0.06403863    -0.16600
C886        C  0.27608163  0.80777799  0.09244344     0.02300
C887        C  0.23804110  0.73989536  0.13193087     0.12300
C888        C  0.25808072  0.71209217  0.07000802     0.62900
H889        H  0.29091114  0.75367633  0.03554236     0.12300
C890        C  0.28105556  0.84128146  0.10040202     0.55000
H891        H  0.25092350  0.79860175  0.13606852     0.08100
C892        C  0.25286953  0.72598931  0.15812710    -0.05700
C893        C  0.23548066  0.70870564  0.17983900    -0.06500
C894        C  0.20381755  0.70637597  0.17702415    -0.16100
C895        C  0.18889581  0.72092460  0.15112838    -0.01600
C896        C  0.20647930  0.73734578  0.12879985    -0.09200
C897        C  0.28668621  0.73027626  0.16367688     0.65100
H898        H  0.24639203  0.69765731  0.19990873     0.10500
C899        C  0.15472428  0.71892417  0.14677018     0.63500
H900        H  0.19570925  0.74873506  0.10883083     0.07900
F901        F  0.27026491  0.84860404  0.13064716    -0.19600
F902        F  0.26590562  0.85938724  0.07857655    -0.15800
F903        F  0.31173630  0.84800116  0.09944678    -0.19300
F904        F  0.22697840  0.70832249  0.06808955    -0.22700
F905        F  0.26933361  0.69243250  0.09294690    -0.24100
F906        F  0.27055895  0.70395529  0.04072227    -0.18100
F907        F  0.14576986  0.73045620  0.11741503    -0.20600
F908        F  0.14027649  0.73564321  0.17044922    -0.21800
F909        F  0.14537881  0.68877354  0.14841372    -0.19000
F910        F  0.29660885  0.71421810  0.19020454    -0.19100
F911        F  0.29284991  0.76088269  0.16867845    -0.22900
F912        F  0.30303099  0.72025386  0.13737658    -0.24500
C913        C  0.23635620  0.77952523  0.40696920    -0.11300
C914        C  0.24913674  0.75280857  0.39438364     0.11300
C915        C  0.27846495  0.74366694  0.40407120    -0.03100
C916        C  0.29435365  0.76217043  0.42589425    -0.05800
C917        C  0.28184692  0.78930367  0.43846675    -0.16600
C918        C  0.25182216  0.79775616  0.42940717     0.02300
C919        C  0.23208341  0.73626427  0.36917073     0.12300
C920        C  0.29302161  0.71464524  0.39116588     0.62900
H921        H  0.31705348  0.75565942  0.43296627     0.12300
C922        C  0.23551497  0.82527570  0.44359320     0.55000
H923        H  0.21402718  0.78610925  0.39871935     0.08100
C924        C  0.20770226  0.71618584  0.37628384    -0.05700
C925        C  0.19251793  0.70184258  0.35075078    -0.06500
C926        C  0.20111172  0.70700555  0.31886132    -0.16100
C927        C  0.22507405  0.72749749  0.31173265    -0.01600
C928        C  0.24002414  0.74206693  0.33718298    -0.09200
C929        C  0.19780573  0.70990135  0.41055211     0.65100
H930        H  0.17395204  0.68621989  0.35544022     0.10500
C931        C  0.23455163  0.73410116  0.27740709     0.63500
H932        H  0.25826841  0.75804316  0.33238284     0.07900
F933        F  0.20534423  0.82640455  0.43448066    -0.19600
F934        F  0.24926915  0.85193703  0.43324369    -0.15800
F935        F  0.23617964  0.82384783  0.47670261    -0.19300
F936        F  0.29805133  0.71741141  0.35860183    -0.22700
F937        F  0.27418911  0.68990725  0.39664920    -0.24100
F938        F  0.32059137  0.70868156  0.40567293    -0.18100
F939        F  0.20993806  0.74485365  0.26033342    -0.20600
F940        F  0.24519949  0.70765429  0.26318626    -0.21800
F941        F  0.25736108  0.75585603  0.27577460    -0.19000
F942        F  0.17446326  0.68871975  0.41195803    -0.19100
F943        F  0.18768008  0.73657649  0.42471011    -0.22900
F944        F  0.22188811  0.69855830  0.42796932    -0.24500
Fe945      Fe  0.10709225  0.60758838  0.75363906     1.65800
Fe946      Fe  0.18040527  0.63234419  0.75193853     1.73200
Fe947      Fe  0.12190205  0.68397896  0.75492064     1.54400
O948        O  0.08664619  0.67586267  0.72307519    -0.81100
O949        O  0.19035677  0.66245624  0.78812305    -0.79400
O950        O  0.08318148  0.62569173  0.71549732    -0.83600
O951        O  0.07856395  0.62858646  0.78567308    -0.78500
O952        O  0.14811723  0.69591576  0.71632381    -0.80200
O953        O  0.17732726  0.59787027  0.78610057    -0.83000
C954        C  0.07593719  0.65410124  0.79957595     0.97800
C955        C  0.07528717  0.65290062  0.70886405     1.05200
O956        O  0.13655017  0.64131719  0.75361168    -1.12000
O957        O  0.17693634  0.60090874  0.71534815    -0.74400
O958        O  0.13095842  0.58110645  0.72173805    -0.77900
O959        O  0.09346252  0.67641575  0.79350780    -0.78600
C960        C  0.15690339  0.58125670  0.70859257     0.96700
O961        O  0.12822509  0.58626264  0.79166157    -0.76500
O962        O  0.18854971  0.66563691  0.71759987    -0.81700
C963        C  0.18057054  0.68845661  0.79640262     0.99300
C964        C  0.17396715  0.68810572  0.70593004     1.05200
O965        O  0.15551459  0.69902671  0.78622458    -0.77400
C966        C  0.15592210  0.58296938  0.79942918     1.03500
Fe967      Fe  0.38220240  0.87705438  0.50371254     1.65800
Fe968      Fe  0.31081405  0.86925725  0.99745820     1.73200
Fe969      Fe  0.36150718  0.80948718  0.99438418     1.54400
O970        O  0.39511636  0.81273768  0.95974370    -0.81100
O971        O  0.28979370  0.83184010  0.53566060    -0.79400
O972        O  0.40934903  0.86160447  0.95736744    -0.83600
O973        O  0.40338879  0.85786624  0.54266990    -0.78500
O974        O  0.33006519  0.80228820  0.95874375    -0.80200
O975        O  0.31305713  0.89371883  0.54108461    -0.83000
C976        C  0.40713497  0.83058362  0.55190593     0.97800
C977        C  0.41128410  0.83403338  0.94814624     1.05200
O978        O  0.35318080  0.85402177  0.99546195    -1.12000
O979        O  0.31768293  0.90399682  0.96470741    -0.74400
O980        O  0.36746560  0.91204383  0.96235034    -0.77900
O981        O  0.39215570  0.80839814  0.54022835    -0.78600
C982        C  0.34060480  0.91839693  0.95414747     0.96700
O983        O  0.36130751  0.90743511  0.53459883    -0.76500
O984        O  0.29687532  0.84090079  0.96022813    -0.81700
C985        C  0.30041122  0.80975468  0.55169843     0.99300
C986        C  0.30623891  0.81559502  0.94883299     1.05200
O987        O  0.32700050  0.79927349  0.54745846    -0.77400
C988        C  0.33546425  0.91075540  0.54787044     1.03500
Fe989      Fe  0.88050034  0.60869702  0.00970672     1.65800
Fe990      Fe  0.80812288  0.62501119  0.49708534     1.73200
Fe991      Fe  0.86363200  0.68030877  0.49348945     1.54400
O992        O  0.89476431  0.67639809  0.53067349    -0.81100
O993        O  0.79611204  0.65938106  0.96516105    -0.79400
O994        O  0.90888194  0.62738164  0.53063195    -0.83600
O995        O  0.90624127  0.62688909  0.97369845    -0.78500
O996        O  0.83135338  0.69385524  0.52639817    -0.80200
O997        O  0.81597407  0.59640467  0.96341201    -0.83000
C998        C  0.91162051  0.65397023  0.96471337     0.97800
C999        C  0.91123812  0.65463022  0.54086448     1.05200
O1000       O  0.85165035  0.63669603  0.49579160    -1.12000
O1001       O  0.81368585  0.59195982  0.53239217    -0.74400
O1002       O  0.86275985  0.58081123  0.53318770    -0.77900
O1003       O  0.89627274  0.67688355  0.97426467    -0.78600
C1004       C  0.83592090  0.57693321  0.54346474     0.96700
O1005       O  0.86172145  0.57921717  0.97647609    -0.76500
O1006       O  0.79752150  0.65658171  0.53248631    -0.81700
C1007       C  0.80841959  0.68341367  0.95421379     0.99300
C1008       C  0.80742537  0.68315948  0.53904449     1.05200
O1009       O  0.83324711  0.69372222  0.96516083    -0.77400
C1010       C  0.83802280  0.57810826  0.95941996     1.03500
Fe1011     Fe  0.61133387  0.88009337  0.74438430     1.65800
Fe1012     Fe  0.68709390  0.86167202  0.74561658     1.73200
Fe1013     Fe  0.63278320  0.80510428  0.74875413     1.54400
O1014       O  0.60146309  0.81175735  0.78526705    -0.81100
O1015       O  0.69851351  0.82958352  0.71146788    -0.79400
O1016       O  0.58670248  0.86025204  0.78111204    -0.83600
O1017       O  0.58652353  0.85702901  0.70999302    -0.78500
O1018       O  0.66481257  0.79540921  0.78357782    -0.80200
O1019       O  0.68115353  0.89295396  0.70895494    -0.83000
C1020       C  0.58340364  0.82926831  0.70189867     0.97800
C1021       C  0.58533736  0.83422041  0.79438093     1.05200
O1022       O  0.64377068  0.84897586  0.74632504    -1.12000
O1023       O  0.68095948  0.89553592  0.77943534    -0.74400
O1024       O  0.63182791  0.90778132  0.77778634    -0.77900
O1025       O  0.59903357  0.80804271  0.71428074    -0.78600
C1026       C  0.65855958  0.91179074  0.78808432     0.96700
O1027       O  0.63187666  0.90397202  0.70793383    -0.76500
O1028       O  0.69958091  0.83232050  0.78214682    -0.81700
C1029       C  0.68702206  0.80488042  0.70112911     0.99300
C1030       C  0.68914628  0.80758121  0.79359166     1.05200
O1031       O  0.66272292  0.79350604  0.71244604    -0.77400
C1032       C  0.65867321  0.90723888  0.69737693     1.03500
Fe1033     Fe  0.11060128  0.38105797  0.99942283     1.65800
Fe1034     Fe  0.18493099  0.36149667  0.00413109     1.73200
Fe1035     Fe  0.12833344  0.31139898  0.49755409     1.54400
O1036       O  0.09689487  0.31659262  0.53428594    -0.81100
O1037       O  0.19707228  0.33537863  0.96526764    -0.79400
O1038       O  0.08220534  0.36526194  0.53172510    -0.83600
O1039       O  0.08399005  0.35829206  0.96652221    -0.78500
O1040       O  0.16004290  0.29915927  0.53139182    -0.80200
O1041       O  0.18031909  0.39872186  0.97334452    -0.83000
C1042       C  0.08382468  0.33247022  0.95278722     0.97800
C1043       C  0.08046538  0.33871127  0.54364710     1.05200
O1044       O  0.14029550  0.35500900  0.49800023    -1.12000
O1045       O  0.17759687  0.39995095  0.53328074    -0.74400
O1046       O  0.12835461  0.41089983  0.53458446    -0.77900
O1047       O  0.10210338  0.31120858  0.96002895    -0.78600
C1048       C  0.15516893  0.41450173  0.54478666     0.96700
O1049       O  0.13127017  0.40346876  0.96196433    -0.76500
O1050       O  0.19456690  0.33609870  0.53481744    -0.81700
C1051       C  0.18862945  0.30915620  0.95595608     0.99300
C1052       C  0.18417097  0.31018508  0.54311090     1.05200
O1053       O  0.16571730  0.29526243  0.96761514    -0.77400
C1054       C  0.15882062  0.41099871  0.95775701     1.03500
Fe1055     Fe  0.38228228  0.11370490  0.75508856     1.65800
Fe1056     Fe  0.36421838  0.18886812  0.74545977     1.73200
Fe1057     Fe  0.30794085  0.13398762  0.74821154     1.54400
O1058       O  0.31465953  0.09962874  0.71461415    -0.81100
O1059       O  0.33263407  0.20268103  0.77941405    -0.79400
O1060       O  0.36184120  0.08441314  0.72375449    -0.83600
O1061       O  0.36032298  0.09461052  0.79327257    -0.78500
O1062       O  0.29756017  0.16344060  0.71133361    -0.80200
O1063       O  0.39581844  0.18704818  0.78184771    -0.83000
C1064       C  0.33273765  0.09099211  0.80093982     0.97800
C1065       C  0.33669404  0.08145604  0.70972223     1.05200
O1066       O  0.35145925  0.14562790  0.74945177    -1.12000
O1067       O  0.39791013  0.17908588  0.71151987    -0.74400
O1068       O  0.40771511  0.12954045  0.71773581    -0.77900
O1069       O  0.31122609  0.10320058  0.78555436    -0.78600
C1070       C  0.41300662  0.15505715  0.70470091     0.96700
O1071       O  0.40776599  0.13800468  0.78711777    -0.76500
O1072       O  0.33430397  0.19811659  0.70886033    -0.81700
C1073       C  0.30830108  0.19166701  0.79116269     0.99300
C1074       C  0.30920562  0.18737928  0.69936147     1.05200
O1075       O  0.29670986  0.16666118  0.78173338    -0.77400
C1076       C  0.41117253  0.16580060  0.79437833     1.03500
Fe1077     Fe  0.60533077  0.10725820  0.99821829     1.65800
Fe1078     Fe  0.63047746  0.18097135  0.50106936     1.73200
Fe1079     Fe  0.68678266  0.12725664  0.49623080     1.54400
O1080       O  0.68121412  0.09526394  0.53180015    -0.81100
O1081       O  0.66191580  0.19279760  0.96668759    -0.79400
O1082       O  0.63468042  0.07656580  0.52306418    -0.83600
O1083       O  0.62438916  0.08323451  0.96134409    -0.78500
O1084       O  0.69813446  0.15908774  0.53097380    -0.80200
O1085       O  0.59792582  0.17851429  0.96199491    -0.83000
C1086       C  0.65117849  0.07663641  0.95296355     0.97800
C1087       C  0.66012713  0.07622551  0.53733180     1.05200
O1088       O  0.64318651  0.13789914  0.49632079    -1.12000
O1089       O  0.59596749  0.17089367  0.53319644    -0.74400
O1090       O  0.58659854  0.12101645  0.52908376    -0.77900
O1091       O  0.67424694  0.08991301  0.96475241    -0.78600
C1092       C  0.58123002  0.14706126  0.54105256     0.96700
O1093       O  0.58023225  0.13098064  0.96493789    -0.76500
O1094       O  0.65870789  0.18947044  0.53937530    -0.81700
C1095       C  0.68544880  0.18035492  0.95498643     0.99300
C1096       C  0.68545151  0.18100334  0.54582104     1.05200
O1097       O  0.69393383  0.15359491  0.96272388    -0.77400
C1098       C  0.57971419  0.15770836  0.95322667     1.03500
Fe1099     Fe  0.88192852  0.38103039  0.75415630     1.65800
Fe1100     Fe  0.80805760  0.35776161  0.75103113     1.73200
Fe1101     Fe  0.86554253  0.30498357  0.75039457     1.54400
O1102       O  0.90057303  0.31385882  0.71828500    -0.81100
O1103       O  0.79857502  0.32783358  0.78791751    -0.79400
O1104       O  0.90601703  0.36435516  0.71568173    -0.83600
O1105       O  0.90953183  0.35829241  0.78617388    -0.78500
O1106       O  0.83861971  0.29446900  0.71180667    -0.80200
O1107       O  0.81170692  0.39288199  0.78499714    -0.83000
C1108       C  0.91092893  0.33170943  0.79819051     0.97800
C1109       C  0.91237841  0.33766551  0.70602048     1.05200
O1110       O  0.85179536  0.34789601  0.75186189    -1.12000
O1111       O  0.81295063  0.38867986  0.71392084    -0.74400
O1112       O  0.85857833  0.40876277  0.72266648    -0.77900
O1113       O  0.89401350  0.31005797  0.78900933    -0.78600
C1114       C  0.83333151  0.40841166  0.70806880     0.96700
O1115       O  0.86109777  0.40128151  0.79275113    -0.76500
O1116       O  0.79796069  0.32419205  0.71705826    -0.81700
C1117       C  0.80901538  0.30174781  0.79537719     0.99300
C1118       C  0.81192702  0.30196076  0.70394178     1.05200
O1119       O  0.83237853  0.29033954  0.78211691    -0.77400
C1120       C  0.83346453  0.40603160  0.79954184     1.03500
C1121       C  0.71052587  0.23133331  0.61655207    -0.11300
C1122       C  0.74199811  0.23243206  0.61131640     0.11300
C1123       C  0.75481931  0.21554526  0.58571151    -0.03100
C1124       C  0.73541759  0.19885787  0.56552120    -0.05800
C1125       C  0.70369398  0.19831275  0.56996876    -0.16600
C1126       C  0.69093319  0.21483950  0.59617560     0.02300
C1127       C  0.76097353  0.25087813  0.63366959     0.12300
C1128       C  0.78887364  0.21503833  0.57966626     0.62900
H1129       H  0.74507352  0.18630952  0.54561324     0.12300
C1130       C  0.65702637  0.21504972  0.60313191     0.55000
H1131       H  0.70139652  0.24393770  0.63671105     0.08100
C1132       C  0.76230153  0.28321499  0.63224741    -0.05700
C1133       C  0.77936294  0.29907111  0.65546789    -0.06500
C1134       C  0.79608829  0.28360253  0.67900225    -0.16100
C1135       C  0.79597359  0.25106451  0.67925463    -0.01600
C1136       C  0.77760722  0.23541363  0.65710757    -0.09200
C1137       C  0.74598039  0.30083011  0.60616056     0.65100
H1138       H  0.77988267  0.32382614  0.65534993     0.10500
C1139       C  0.81453587  0.23270047  0.70308419     0.63500
H1140       H  0.77607093  0.21072693  0.65780172     0.07900
F1141       F  0.64199077  0.23102310  0.57944496    -0.19600
F1142       F  0.65038190  0.22896569  0.63212980    -0.15800
F1143       F  0.64616410  0.18540798  0.60447135    -0.19300
F1144       F  0.80323432  0.19995249  0.60439630    -0.22700
F1145       F  0.79999433  0.24452181  0.57765930    -0.24100
F1146       F  0.79614537  0.20014165  0.55137928    -0.18100
F1147       F  0.80918807  0.20161997  0.70041879    -0.20600
F1148       F  0.80726963  0.24143931  0.73402623    -0.21800
F1149       F  0.84515998  0.23745386  0.69755671    -0.19000
F1150       F  0.75256207  0.33175167  0.60734370    -0.19100
F1151       F  0.71495943  0.29735079  0.60957245    -0.22900
F1152       F  0.75475227  0.29003641  0.57638356    -0.24500
C1153       C  0.72948185  0.24444559  0.91374974    -0.12900
C1154       C  0.73947247  0.22971437  0.88589887     0.11300
C1155       C  0.73294770  0.19835883  0.88124227    -0.03100
C1156       C  0.71501767  0.18305159  0.90422984    -0.05800
C1157       C  0.70397849  0.19807029  0.93167400    -0.16600
C1158       C  0.71192818  0.22920532  0.93696996     0.02300
C1159       C  0.75700645  0.24799306  0.86227915     0.12300
C1160       C  0.74545388  0.18110172  0.85250988     0.62900
H1161       H  0.70944150  0.15915856  0.90094170     0.12300
C1162       C  0.70296981  0.24622022  0.96736068     0.55000
H1163       H  0.73544256  0.26825880  0.91696144     0.08100
C1164       C  0.74241787  0.26613263  0.83891330    -0.05700
C1165       C  0.76039070  0.28312574  0.81748337    -0.06500
C1166       C  0.79221326  0.28334744  0.81942242    -0.16100
C1167       C  0.80675173  0.26642121  0.84397829    -0.01600
C1168       C  0.78873085  0.24869120  0.86485043    -0.09200
C1169       C  0.70802282  0.26820227  0.83720854     0.65100
H1170       H  0.74963999  0.29654702  0.79894843     0.10500
C1171       C  0.84085423  0.26802902  0.84911120     0.63500
H1172       H  0.79922303  0.23535074  0.88361603     0.07900
F1173       F  0.67197821  0.25111425  0.96789233    -0.19600
F1174       F  0.71709556  0.27443855  0.96944272    -0.15800
F1175       F  0.71129463  0.22942045  0.99395584    -0.19300
F1176       F  0.77680525  0.18080127  0.85380416    -0.22700
F1177       F  0.73655251  0.19504520  0.82438778    -0.24100
F1178       F  0.73536301  0.15113906  0.85181189    -0.18100
F1179       F  0.84936957  0.25394638  0.87736931    -0.20600
F1180       F  0.85003698  0.29824448  0.85067081    -0.21800
F1181       F  0.85584155  0.25358272  0.82420877    -0.19000
F1182       F  0.69858327  0.28618763  0.81186485    -0.19100
F1183       F  0.69689449  0.28097940  0.86517749    -0.22900
F1184       F  0.69554768  0.23946676  0.83335777    -0.24500
C1185       C  0.48806457  0.14021148  0.66148371    -0.11300
C1186       C  0.48585512  0.16013983  0.63551815     0.11300
C1187       C  0.45977104  0.17868748  0.63203352    -0.03100
C1188       C  0.43668590  0.17696066  0.65547449    -0.05800
C1189       C  0.43858694  0.15652751  0.68137484    -0.16600
C1190       C  0.46508450  0.13801958  0.68471483     0.02300
C1191       C  0.51028351  0.15868186  0.61104105     0.12300
C1192       C  0.45611923  0.19958292  0.60329275     0.62900
H1193       H  0.41650258  0.19084091  0.65314961     0.12300
C1194       C  0.46958834  0.11565976  0.71227471     0.55000
H1195       H  0.50786944  0.12564818  0.66286801     0.08100
C1196       C  0.53908449  0.17236014  0.61564011    -0.05700
C1197       C  0.56162531  0.16806920  0.59209929    -0.06500
C1198       C  0.55643463  0.14998691  0.56487215    -0.16100
C1199       C  0.52746843  0.13631049  0.56034621    -0.01600
C1200       C  0.50501926  0.14074373  0.58386547    -0.09200
C1201       C  0.54604484  0.19108967  0.64536810     0.65100
H1202       H  0.58383426  0.17838713  0.59507084     0.10500
C1203       C  0.51976478  0.11761664  0.53071434     0.63500
H1204       H  0.48304073  0.12979190  0.58150717     0.07900
F1205       F  0.49909901  0.10486034  0.71355651    -0.19600
F1206       F  0.45060526  0.09074339  0.70841062    -0.15800
F1207       F  0.46350093  0.12972102  0.74126739    -0.19300
F1208       F  0.45389380  0.18231527  0.57565883    -0.22700
F1209       F  0.48090935  0.21883100  0.60072590    -0.24100
F1210       F  0.43028172  0.21742802  0.60574983    -0.18100
F1211       F  0.53565885  0.09040617  0.53101310    -0.20600
F1212       F  0.52710499  0.13379055  0.50332801    -0.21800
F1213       F  0.48911305  0.11068101  0.52931114    -0.19000
F1214       F  0.57475490  0.20395538  0.64398234    -0.19100
F1215       F  0.54466470  0.17270708  0.67224246    -0.22900
F1216       F  0.52517677  0.21447302  0.64851971    -0.24500
C1217       C  0.51378277  0.19294529  0.90729353    -0.11300
C1218       C  0.50778717  0.16960405  0.88525796     0.11300
C1219       C  0.52710455  0.14383746  0.88353655    -0.03100
C1220       C  0.55094399  0.14143255  0.90561851    -0.05800
C1221       C  0.55647671  0.16423823  0.92857077    -0.16600
C1222       C  0.53791547  0.19079764  0.92918182     0.02300
C1223       C  0.48132456  0.17288008  0.86380612     0.12300
C1224       C  0.52256432  0.11902552  0.85847961     0.62900
H1225       H  0.56545133  0.12149698  0.90529095     0.12300
C1226       C  0.54267732  0.21628464  0.95336826     0.55000
H1227       H  0.49903584  0.21269102  0.90741658     0.08100
C1228       C  0.45192874  0.16302989  0.87291740    -0.05700
C1229       C  0.42889351  0.16301638  0.84973441    -0.06500
C1230       C  0.43438124  0.17306110  0.81833487    -0.16100
C1231       C  0.46331722  0.18510487  0.80998464    -0.01600
C1232       C  0.48623799  0.18499758  0.83320982    -0.09200
C1233       C  0.44513907  0.15214160  0.90673639     0.65100
H1234       H  0.40660098  0.15405165  0.85559426     0.10500
C1235       C  0.47213477  0.19706401  0.77704880     0.63500
H1236       H  0.50874792  0.19322183  0.82694238     0.07900
F1237       F  0.52051993  0.23860720  0.95112810    -0.19600
F1238       F  0.57047277  0.23009827  0.94799818    -0.15800
F1239       F  0.54174856  0.20457375  0.98412795    -0.19300
F1240       F  0.52536242  0.13140659  0.82815512    -0.22700
F1241       F  0.49405110  0.10616626  0.86172040    -0.24100
F1242       F  0.54382259  0.09590241  0.86126726    -0.18100
F1243       F  0.48157370  0.22709271  0.77986355    -0.20600
F1244       F  0.44887044  0.19614584  0.75507745    -0.21800
F1245       F  0.49599667  0.17990823  0.76508352    -0.19000
F1246       F  0.41496720  0.14393497  0.91051355    -0.19100
F1247       F  0.45136153  0.17528629  0.92828762    -0.22900
F1248       F  0.46282202  0.12703260  0.91397482    -0.24500
C1249       C  0.03444201  0.34299062  0.62055953    -0.11300
C1250       C  0.00825812  0.32684704  0.61174038     0.11300
C1251       C  0.00633033  0.31356538  0.58084741    -0.03100
C1252       C  0.03124044  0.31664628  0.55982676    -0.05800
C1253       C  0.05716425  0.33331480  0.56848040    -0.16600
C1254       C  0.05902706  0.34662247  0.59931848     0.02300
C1255       C  0.98231163  0.32701416  0.63451338     0.12300
C1256       C  0.97790825  0.29689279  0.56991438     0.62900
H1257       H  0.03023254  0.30704786  0.53588984     0.12300
C1258       C  0.08686349  0.36449495  0.60968171     0.55000
H1259       H  0.03507332  0.35345675  0.64410518     0.08100
C1260       C  0.98064993  0.30691162  0.66098853    -0.05700
C1261       C  0.95667782  0.31044132  0.68307685    -0.06500
C1262       C  0.93523398  0.33402909  0.68008855    -0.16100
C1263       C  0.93667690  0.35380717  0.65315270    -0.01600
C1264       C  0.96036919  0.34990189  0.63085921    -0.09200
C1265       C  0.00476378  0.28272810  0.66659574     0.65100
H1266       H  0.95530681  0.29557744  0.70376350     0.10500
C1267       C  0.91339475  0.37884702  0.64764601     0.63500
H1268       H  0.96251554  0.36535250  0.61068815     0.07900
F1269       F  0.08472682  0.37391843  0.64129056    -0.19600
F1270       F  0.09023319  0.39021210  0.59080335    -0.15800
F1271       F  0.11240472  0.34635380  0.60659714    -0.19300
F1272       F  0.95328174  0.31642295  0.57079227    -0.22700
F1273       F  0.97216137  0.27229936  0.58975773    -0.24100
F1274       F  0.98082388  0.28602222  0.53889234    -0.18100
F1275       F  0.91807460  0.40250860  0.66903842    -0.20600
F1276       F  0.88441550  0.36729576  0.65171132    -0.21800
F1277       F  0.91533703  0.39067385  0.61694632    -0.19000
F1278       F  0.99764628  0.26423232  0.69246237    -0.19100
F1279       F  0.03231644  0.29665983  0.67265957    -0.22900
F1280       F  0.00771313  0.26427820  0.63990265    -0.24500
C1281       C  0.03326985  0.34040486  0.87998883    -0.11300
C1282       C  0.00859166  0.32210365  0.88909279     0.11300
C1283       C  0.01048126  0.30393040  0.91705352    -0.03100
C1284       C  0.03643363  0.30664990  0.93648975    -0.05800
C1285       C  0.06009947  0.32683398  0.92859354    -0.16600
C1286       C  0.05897393  0.34337191  0.89952827     0.02300
C1287       C  0.98110649  0.32295458  0.86869501     0.12300
C1288       C  0.98504936  0.28221815  0.92642241     0.62900
H1289       H  0.03792039  0.29394427  0.95871689     0.12300
C1290       C  0.08448945  0.36458856  0.88963281     0.55000
H1291       H  0.03160798  0.35342806  0.85797489     0.08100
C1292       C  0.96041406  0.34769303  0.86995489    -0.05700
C1293       C  0.93709432  0.34901846  0.84713262    -0.06500
C1294       C  0.93351746  0.32622624  0.82375715    -0.16100
C1295       C  0.95319070  0.30052266  0.82377203    -0.01600
C1296       C  0.97712186  0.29973775  0.84598350    -0.09200
C1297       C  0.96313240  0.37275816  0.89502839     0.65100
H1298       H  0.92167441  0.36827903  0.84698246     0.10500
C1299       C  0.94976658  0.27456392  0.79987795     0.63500
H1300       H  0.99340820  0.28121925  0.84544804     0.07900
F1301       F  0.08098481  0.37498883  0.85855407    -0.19600
F1302       F  0.11193131  0.34939337  0.89136665    -0.15800
F1303       F  0.08493236  0.38955818  0.90987434    -0.19300
F1304       F  0.98163951  0.26012961  0.90302787    -0.22700
F1305       F  0.95809122  0.29807084  0.92973399    -0.24100
F1306       F  0.99093770  0.26758574  0.95511599    -0.18100
F1307       F  0.97255936  0.25301645  0.80295668    -0.20600
F1308       F  0.95088664  0.28587634  0.76896987    -0.21800
F1309       F  0.92234248  0.25988887  0.80488320    -0.19000
F1310       F  0.93944994  0.39346780  0.89318683    -0.19100
F1311       F  0.98996925  0.38863995  0.89078983    -0.22900
F1312       F  0.96271218  0.36009878  0.92535026    -0.24500
C1313       C  0.28594015  0.23967104  0.63026215    -0.11300
C1314       C  0.25434829  0.24013976  0.63444067     0.11300
C1315       C  0.24071880  0.22162860  0.65824716    -0.03100
C1316       C  0.25958001  0.20425375  0.67827841    -0.05800
C1317       C  0.29142642  0.20458729  0.67509226    -0.16600
C1318       C  0.30491494  0.22224872  0.65024266     0.02300
C1319       C  0.23602522  0.25875932  0.61199774     0.12300
C1320       C  0.20642585  0.22026177  0.66248945     0.62900
H1321       H  0.24947110  0.19066860  0.69718755     0.12300
C1322       C  0.33897057  0.22245038  0.64423134     0.55000
H1323       H  0.29564148  0.25340829  0.61121101     0.08100
C1324       C  0.23182312  0.29059103  0.61601700    -0.05700
C1325       C  0.21460763  0.30657483  0.59310978    -0.06500
C1326       C  0.20131005  0.29165241  0.56680922    -0.16100
C1327       C  0.20607152  0.25970736  0.56271987    -0.01600
C1328       C  0.22360812  0.24398048  0.58539097    -0.09200
C1329       C  0.24562974  0.30751807  0.64423412     0.65100
H1330       H  0.21139497  0.33093177  0.59559937     0.10500
C1331       C  0.19373620  0.24219780  0.53409781     0.63500
H1332       H  0.22778141  0.21972284  0.58266309     0.07900
F1333       F  0.35348497  0.23820316  0.66847077    -0.19600
F1334       F  0.34630486  0.23653240  0.61553013    -0.15800
F1335       F  0.34978059  0.19279634  0.64292445    -0.19300
F1336       F  0.19317069  0.20878328  0.63504913    -0.22700
F1337       F  0.19507845  0.24915641  0.66838930    -0.24100
F1338       F  0.19801693  0.20162411  0.68781284    -0.18100
F1339       F  0.20456742  0.21252320  0.53295140    -0.20600
F1340       F  0.20235705  0.25655415  0.50598300    -0.21800
F1341       F  0.16242284  0.24070513  0.53589922    -0.19000
F1342       F  0.23785307  0.33816221  0.64428332    -0.19100
F1343       F  0.27691883  0.30548982  0.64290634    -0.22900
F1344       F  0.23555177  0.29487820  0.67269311    -0.24500
C1345       C  0.28957003  0.23986606  0.86463198    -0.11300
C1346       C  0.25792191  0.24173927  0.86220437     0.11300
C1347       C  0.24276965  0.22668684  0.83687948    -0.03100
C1348       C  0.26020621  0.21086571  0.81401929    -0.05800
C1349       C  0.29196322  0.20895229  0.81635034    -0.16600
C1350       C  0.30686803  0.22254006  0.84285682     0.02300
C1351       C  0.24114637  0.25915950  0.88699716     0.12300
C1352       C  0.20837943  0.22721158  0.83413323     0.62900
H1353       H  0.24913279  0.19993203  0.79396405     0.12300
C1354       C  0.34030618  0.21707036  0.84955184     0.55000
H1355       H  0.30053737  0.25156197  0.88427780     0.08100
C1356       C  0.23492102  0.24666826  0.91759528    -0.05700
C1357       C  0.21720987  0.26374272  0.93912628    -0.06500
C1358       C  0.20705306  0.29321794  0.93159635    -0.16100
C1359       C  0.21483872  0.30647027  0.90170020    -0.01600
C1360       C  0.23152145  0.28885985  0.87960155    -0.09200
C1361       C  0.24717329  0.21566417  0.92759632     0.65100
H1362       H  0.21166895  0.25445904  0.96247152     0.10500
C1363       C  0.20537143  0.33877626  0.89303251     0.63500
H1364       H  0.23740149  0.29816050  0.85634598     0.07900
F1365       F  0.34864336  0.22816618  0.87932973    -0.19600
F1366       F  0.35805462  0.23147111  0.82675144    -0.15800
F1367       F  0.34620168  0.18601377  0.84913473    -0.19300
F1368       F  0.19859107  0.25670772  0.82852492    -0.22700
F1369       F  0.19531875  0.21663652  0.86220066    -0.24100
F1370       F  0.19822683  0.20892229  0.80929580    -0.18100
F1371       F  0.21206419  0.34565600  0.86140905    -0.20600
F1372       F  0.22055792  0.35947159  0.91222022    -0.21800
F1373       F  0.17444664  0.34221609  0.89743921    -0.19000
F1374       F  0.23728912  0.20744344  0.95792419    -0.19100
F1375       F  0.27853547  0.21644786  0.92805806    -0.22900
F1376       F  0.23776542  0.19341969  0.90631311    -0.24500
C1377       C  0.64716742  0.95745265  0.62428253    -0.11300
C1378       C  0.67216022  0.97704459  0.62635622     0.11300
C1379       C  0.69401337  0.97261121  0.65067897    -0.03100
C1380       C  0.68944218  0.94875707  0.67286562    -0.05800
C1381       C  0.66387002  0.92954989  0.67122495    -0.16600
C1382       C  0.64304950  0.93318728  0.64572307     0.02300
C1383       C  0.67312212  0.00308536  0.60373698     0.12300
C1384       C  0.72181919  0.99300083  0.65322331     0.62900
H1385       H  0.70532149  0.94553550  0.69226957     0.12300
C1386       C  0.61693322  0.91125758  0.64038821     0.55000
H1387       H  0.63051986  0.96161731  0.60577491     0.08100
C1388       C  0.68044738  0.99909365  0.57090175    -0.05700
C1389       C  0.67663751  0.02395215  0.54998453    -0.06500
C1390       C  0.66557265  0.05208579  0.56099146    -0.16100
C1391       C  0.65891202  0.05632894  0.59379353    -0.01600
C1392       C  0.66256932  0.03149946  0.61473430    -0.09200
C1393       C  0.69150818  0.96858840  0.55791878     0.65100
H1394       H  0.68150362  0.02142090  0.52463392     0.10500
C1395       C  0.64755263  0.08685651  0.60623068     0.63500
H1396       H  0.65639839  0.03378284  0.63978909     0.07900
F1397       F  0.62682124  0.88151452  0.64438064    -0.19600
F1398       F  0.60557623  0.91380426  0.60965352    -0.15800
F1399       F  0.59369252  0.91746778  0.66179389    -0.19300
F1400       F  0.71313786  0.02295082  0.65829158    -0.22700
F1401       F  0.73858816  0.99133093  0.62521923    -0.24100
F1402       F  0.74039430  0.98438734  0.67831144    -0.18100
F1403       F  0.64262492  0.08633104  0.63900325    -0.20600
F1404       F  0.62049766  0.09426717  0.59145719    -0.21800
F1405       F  0.66879832  0.10931076  0.59964363    -0.19000
F1406       F  0.70013831  0.97064029  0.52605797    -0.19100
F1407       F  0.66867833  0.94701679  0.56020077    -0.22900
F1408       F  0.71629958  0.95870582  0.57522196    -0.24500
C1409       C  0.65916214  0.98959966  0.82762978    -0.11300
C1410       C  0.66972721  0.98213166  0.85820558     0.11300
C1411       C  0.67883054  0.95181668  0.86510104    -0.03100
C1412       C  0.67578089  0.92947574  0.84111130    -0.05800
C1413       C  0.66375043  0.93672623  0.81104379    -0.16600
C1414       C  0.65655681  0.96744572  0.80353348     0.02300
C1415       C  0.66706562  0.00576677  0.88334554     0.12300
C1416       C  0.69053622  0.94285359  0.89792756     0.62900
H1417       H  0.68151337  0.90587918  0.84610273     0.12300
C1418       C  0.64688407  0.97697733  0.77010076     0.55000
H1419       H  0.65204182  0.01288385  0.82310469     0.08100
C1420       C  0.68731817  0.03072692  0.88577411    -0.05700
C1421       C  0.68139646  0.05337346  0.90891746    -0.06500
C1422       C  0.65566150  0.05197143  0.92897331    -0.16100
C1423       C  0.63555616  0.02651798  0.92651181    -0.01600
C1424       C  0.64169491  0.00405710  0.90344170    -0.09200
C1425       C  0.71475946  0.03354284  0.86381000     0.65100
H1426       H  0.69653169  0.07274359  0.91103060     0.10500
C1427       C  0.60790461  0.02232795  0.94812732     0.63500
H1428       H  0.62630129  0.98499453  0.90035883     0.07900
F1429       F  0.66788925  0.96661931  0.74789918    -0.19600
F1430       F  0.64505521  0.00844634  0.76717913    -0.15800
F1431       F  0.61869609  0.96489290  0.76308426    -0.19300
F1432       F  0.66701320  0.94347526  0.91993306    -0.22700
F1433       F  0.71294695  0.96292068  0.90761343    -0.24100
F1434       F  0.70279918  0.91373004  0.89775898    -0.18100
F1435       F  0.58626349  0.04417134  0.94108700    -0.20600
F1436       F  0.61632103  0.02471228  0.97992975    -0.21800
F1437       F  0.59449860  0.99395920  0.94408145    -0.19000
F1438       F  0.73286348  0.05819887  0.87197775    -0.19100
F1439       F  0.70537674  0.03751218  0.83254363    -0.22900
F1440       F  0.73225350  0.00740421  0.86564555    -0.24500
C1441       C  0.80494544  0.52813743  0.61301953    -0.11300
C1442       C  0.82657997  0.50465900  0.61363199     0.11300
C1443       C  0.85026480  0.50433479  0.59069517    -0.03100
C1444       C  0.85207892  0.52832406  0.56845044    -0.05800
C1445       C  0.83102450  0.55257575  0.56811604    -0.16600
C1446       C  0.80675514  0.55237869  0.59077332     0.02300
C1447       C  0.82485980  0.48121860  0.63934467     0.12300
C1448       C  0.87355717  0.47868483  0.58971619     0.62900
H1449       H  0.87011694  0.52806741  0.55074389     0.12300
C1450       C  0.78338405  0.57782856  0.59239766     0.55000
H1451       H  0.78679642  0.52748627  0.63061797     0.08100
C1452       C  0.83725504  0.48663514  0.67002435    -0.05700
C1453       C  0.83867506  0.46229034  0.69185307    -0.06500
C1454       C  0.82775502  0.43298331  0.68424544    -0.16100
C1455       C  0.81351418  0.42808222  0.65419040    -0.01600
C1456       C  0.81234386  0.45252142  0.63219667    -0.09200
C1457       C  0.84940068  0.51787771  0.67945755     0.65100
H1458       H  0.84872993  0.46591765  0.71519441     0.10500
C1459       C  0.80053767  0.39718102  0.64480361     0.63500
H1460       H  0.80237316  0.44925576  0.60876911     0.07900
F1461       F  0.79789962  0.60572741  0.59528311    -0.19600
F1462       F  0.76404973  0.57457164  0.61842097    -0.15800
F1463       F  0.76582662  0.57761090  0.56502137    -0.19300
F1464       F  0.85926774  0.45128715  0.58307541    -0.22700
F1465       F  0.88810208  0.47644398  0.61890329    -0.24100
F1466       F  0.89546115  0.48347816  0.56636164    -0.18100
F1467       F  0.79033586  0.39694057  0.61347612    -0.20600
F1468       F  0.77621703  0.39006748  0.66447878    -0.21800
F1469       F  0.82253899  0.37485732  0.64762467    -0.19000
F1470       F  0.86059136  0.51808700  0.71040513    -0.19100
F1471       F  0.82639872  0.53927166  0.67784751    -0.22900
F1472       F  0.87264523  0.52639657  0.65896690    -0.24500
C1473       C  0.85597496  0.51992181  0.89376028    -0.11300
C1474       C  0.82847593  0.50380652  0.89212864     0.11300
C1475       C  0.80398926  0.51253050  0.91223404    -0.03100
C1476       C  0.80787489  0.53746067  0.93319994    -0.05800
C1477       C  0.83543734  0.55354388  0.93497376    -0.16600
C1478       C  0.85981611  0.54507278  0.91442561     0.02300
C1479       C  0.82603338  0.47849407  0.86832389     0.12300
C1480       C  0.77410126  0.49526088  0.91202591     0.62900
H1481       H  0.78958493  0.54404617  0.94917755     0.12300
C1482       C  0.88939794  0.56297440  0.91333196     0.55000
H1483       H  0.87448425  0.51265665  0.87839418     0.08100
C1484       C  0.82278981  0.48442981  0.83511622    -0.05700
C1485       C  0.82328729  0.45970078  0.81351380    -0.06500
C1486       C  0.82699383  0.42953979  0.82407198    -0.16100
C1487       C  0.82900241  0.42341604  0.85724725    -0.01600
C1488       C  0.82867381  0.44814616  0.87896910    -0.09200
C1489       C  0.81958161  0.51681540  0.82246183     0.65100
H1490       H  0.82219438  0.46384014  0.78797444     0.10500
C1491       C  0.83151872  0.39085155  0.86933643     0.63500
H1492       H  0.83125735  0.44405479  0.90436852     0.07900
F1493       F  0.88338636  0.59389984  0.91071423    -0.19600
F1494       F  0.90720779  0.55464002  0.88733648    -0.15800
F1495       F  0.90590704  0.55763754  0.94083997    -0.19300
F1496       F  0.77851652  0.46605581  0.92366650    -0.22700
F1497       F  0.76291240  0.49353560  0.88118876    -0.24100
F1498       F  0.75238607  0.50939159  0.93099236    -0.18100
F1499       F  0.83223563  0.38959906  0.90246573    -0.20600
F1500       F  0.85776732  0.37751057  0.85763840    -0.21800
F1501       F  0.80672760  0.37418083  0.85897371    -0.19000
F1502       F  0.81353876  0.51720005  0.78994577    -0.19100
F1503       F  0.84616748  0.53288606  0.82743952    -0.22900
F1504       F  0.79599857  0.53152067  0.83805795    -0.24500
C1505       C  0.71292937  0.76597788  0.86990569    -0.11300
C1506       C  0.74309873  0.75836775  0.86246783     0.11300
C1507       C  0.75565532  0.76751945  0.83267502    -0.03100
C1508       C  0.73744144  0.78430404  0.81130297    -0.05800
C1509       C  0.70706891  0.79146237  0.81846153    -0.16600
C1510       C  0.69463405  0.78256789  0.84842251     0.02300
C1511       C  0.76051278  0.73959468  0.88582066     0.12300
C1512       C  0.78792804  0.75902001  0.82326419     0.62900
H1513       H  0.74653414  0.79125219  0.78828284     0.12300
C1514       C  0.66246979  0.79114863  0.85796281     0.55000
H1515       H  0.70371857  0.75846583  0.89266987     0.08100
C1516       C  0.77609629  0.75277888  0.91197496    -0.05700
C1517       C  0.79277332  0.73358421  0.93243833    -0.06500
C1518       C  0.79228096  0.70155795  0.92928260    -0.16100
C1519       C  0.77516857  0.68826680  0.90403267    -0.01600
C1520       C  0.76016321  0.70770646  0.88228386    -0.09200
C1521       C  0.77392723  0.78675541  0.91913944     0.65100
H1522       H  0.80517567  0.74346058  0.95221486     0.10500
C1523       C  0.77242714  0.65387539  0.89996018     0.63500
H1524       H  0.74727309  0.69815117  0.86265884     0.07900
F1525       F  0.65640575  0.78408687  0.88968245    -0.19600
F1526       F  0.64195318  0.77549827  0.83910112    -0.15800
F1527       F  0.65828464  0.82224134  0.85404129    -0.19300
F1528       F  0.79077795  0.72759085  0.82204332    -0.22700
F1529       F  0.80816983  0.77046432  0.84544969    -0.24100
F1530       F  0.79581899  0.77060095  0.79350704    -0.18100
F1531       F  0.75521548  0.64185941  0.92472225    -0.20600
F1532       F  0.80092728  0.64062244  0.89995183    -0.21800
F1533       F  0.75836477  0.64616216  0.87147537    -0.19000
F1534       F  0.79094227  0.79487443  0.94563723    -0.19100
F1535       F  0.74403322  0.79441282  0.92535284    -0.22900
F1536       F  0.78422609  0.80357848  0.89329795    -0.24500
C1537       C  0.70684229  0.75998543  0.62553359    -0.11300
C1538       C  0.73812212  0.75576624  0.62982865     0.11300
C1539       C  0.75279115  0.76913092  0.65647115    -0.03100
C1540       C  0.73515496  0.78513676  0.67901892    -0.05800
C1541       C  0.70359439  0.78823089  0.67561170    -0.16600
C1542       C  0.68912276  0.77602329  0.64811659     0.02300
C1543       C  0.75498531  0.73675433  0.60631092     0.12300
C1544       C  0.78692059  0.76653461  0.66096492     0.62900
H1545       H  0.74588556  0.79508178  0.69987159     0.12300
C1546       C  0.65535681  0.78027406  0.64229918     0.55000
H1547       H  0.69632728  0.74999910  0.60456982     0.08100
C1548       C  0.75610537  0.70456907  0.60889484    -0.05700
C1549       C  0.77377049  0.68803059  0.58671383    -0.06500
C1550       C  0.79007388  0.70262845  0.56203343    -0.16100
C1551       C  0.78800817  0.73505143  0.55894615    -0.01600
C1552       C  0.77040717  0.75143736  0.58133117    -0.09200
C1553       C  0.73840886  0.68784576  0.63483792     0.65100
H1554       H  0.77496706  0.66339844  0.58853229     0.10500
C1555       C  0.80348340  0.75256556  0.53191671     0.63500
H1556       H  0.76872174  0.77607936  0.57979905     0.07900
F1557       F  0.63887887  0.76336372  0.66428417    -0.19600
F1558       F  0.64707836  0.77075198  0.61192634    -0.15800
F1559       F  0.64774321  0.81082328  0.64524107    -0.19300
F1560       F  0.80173259  0.78109117  0.63601328    -0.22700
F1561       F  0.79553255  0.73618032  0.66146975    -0.24100
F1562       F  0.79630515  0.77983563  0.68935528    -0.18100
F1563       F  0.79496137  0.78301319  0.53142943    -0.20600
F1564       F  0.79571817  0.73995787  0.50266319    -0.21800
F1565       F  0.83464124  0.75161444  0.53570660    -0.19000
F1566       F  0.74379769  0.65669929  0.63417219    -0.19100
F1567       F  0.70766273  0.69247730  0.63049460    -0.22900
F1568       F  0.74652105  0.69861687  0.66474316    -0.24500
C1569       C  0.30797728  0.96332573  0.61574810    -0.11300
C1570       C  0.32930665  0.98696272  0.61338040     0.11300
C1571       C  0.35262941  0.98545390  0.59011086    -0.03100
C1572       C  0.35295998  0.96060971  0.56887685    -0.05800
C1573       C  0.33181997  0.93646980  0.57110774    -0.16600
C1574       C  0.30889119  0.93773911  0.59526846     0.02300
C1575       C  0.32902868  0.01096681  0.63831586     0.12300
C1576       C  0.37774186  0.00935853  0.58844499     0.62900
H1577       H  0.37034698  0.95973059  0.55048151     0.12300
C1578       C  0.28612372  0.91208735  0.60053308     0.55000
H1579       H  0.29094358  0.96484572  0.63451273     0.08100
C1580       C  0.31205098  0.03819760  0.63545562    -0.05700
C1581       C  0.31471400  0.06047441  0.65963375    -0.06500
C1582       C  0.33352128  0.05603354  0.68638818    -0.16100
C1583       C  0.34918713  0.02772047  0.68989940    -0.01600
C1584       C  0.34642796  0.00570976  0.66565713    -0.09200
C1585       C  0.29095076  0.04339513  0.60730753     0.65100
H1586       H  0.30252076  0.08181515  0.65748548     0.10500
C1587       C  0.36882433  0.02022662  0.71880262     0.63500
H1588       H  0.35859849  0.98429619  0.66732913     0.07900
F1589       F  0.26862499  0.91674998  0.62774425    -0.19600
F1590       F  0.30125637  0.88464548  0.60426094    -0.15800
F1591       F  0.26665268  0.91023617  0.57471262    -0.19300
F1592       F  0.39385191  0.00952895  0.61678228    -0.22700
F1593       F  0.36557456  0.03803167  0.58354368    -0.24100
F1594       F  0.39803033  0.00354831  0.56375651    -0.18100
F1595       F  0.35322480  0.02657906  0.74685770    -0.20600
F1596       F  0.39536235  0.03711585  0.71768237    -0.21800
F1597       F  0.37684560  0.98964146  0.71957504    -0.19000
F1598       F  0.27686779  0.07162533  0.60896286    -0.19100
F1599       F  0.26869968  0.02111238  0.60714855    -0.22900
F1600       F  0.30691387  0.04201089  0.57879010    -0.24500
C1601       C  0.34894665  0.97641534  0.88707509    -0.11300
C1602       C  0.32803363  0.99860860  0.89683772     0.11300
C1603       C  0.30965195  0.99365315  0.92414017    -0.03100
C1604       C  0.31384418  0.96660434  0.94174228    -0.05800
C1605       C  0.33580884  0.94487808  0.93280010    -0.16600
C1606       C  0.35339112  0.94962663  0.90475554     0.02300
C1607       C  0.32552471  0.02616723  0.87673184     0.12300
C1608       C  0.28571514  0.01668714  0.93432732     0.62900
H1609       H  0.30022189  0.96240568  0.96290288     0.12300
C1610       C  0.37562310  0.92590171  0.89264521     0.55000
H1611       H  0.36208800  0.98053360  0.86548279     0.08100
C1612       C  0.34753844  0.04965782  0.87792757    -0.05700
C1613       C  0.34711705  0.07216418  0.85410756    -0.06500
C1614       C  0.32624039  0.07118532  0.82877693    -0.16100
C1615       C  0.30299700  0.04868021  0.82876058    -0.01600
C1616       C  0.30313710  0.02644785  0.85302347    -0.09200
C1617       C  0.37244334  0.04998677  0.90304103     0.65100
H1618       H  0.36445967  0.08978311  0.85394645     0.10500
C1619       C  0.27928467  0.04685493  0.80249350     0.63500
H1620       H  0.28675498  0.00793827  0.85269681     0.07900
F1621       F  0.40050469  0.92436195  0.91265164    -0.19600
F1622       F  0.38600650  0.93253380  0.86207256    -0.15800
F1623       F  0.36122189  0.89789718  0.89168659    -0.19300
F1624       F  0.26336176  0.01828620  0.91125838    -0.22700
F1625       F  0.29864084  0.04526577  0.93798270    -0.24100
F1626       F  0.27216872  0.00871640  0.96312297    -0.18100
F1627       F  0.25982194  0.02231039  0.80675364    -0.20600
F1628       F  0.29332677  0.04350808  0.77299741    -0.21800
F1629       F  0.26193015  0.07316646  0.80256552    -0.19000
F1630       F  0.38955962  0.07651665  0.90163232    -0.19100
F1631       F  0.39177054  0.02553492  0.89825162    -0.22900
F1632       F  0.35991128  0.04799932  0.93336938    -0.24500
C1633       C  0.46235991  0.83845236  0.62147228    -0.11300
C1634       C  0.48374659  0.81593712  0.61367508     0.11300
C1635       C  0.47779510  0.79542530  0.58823578    -0.03100
C1636       C  0.45167359  0.80016315  0.56941113    -0.05800
C1637       C  0.43141152  0.82434024  0.57567497    -0.16600
C1638       C  0.43616445  0.84306533  0.60299098     0.02300
C1639       C  0.51220623  0.81537935  0.63273121     0.12300
C1640       C  0.49884798  0.76877900  0.58112612     0.62900
H1641       H  0.44745423  0.78563139  0.54888094     0.12300
C1642       C  0.41367279  0.86759057  0.61304317     0.55000
H1643       H  0.46699179  0.85321463  0.64173536     0.08100
C1644       C  0.53605761  0.83630135  0.62654991    -0.05700
C1645       C  0.55960465  0.83905816  0.64905974    -0.06500
C1646       C  0.56014439  0.82169414  0.67731760    -0.16100
C1647       C  0.53683507  0.79982175  0.68278911    -0.01600
C1648       C  0.51321874  0.79706825  0.66024070    -0.09200
C1649       C  0.53589158  0.85652842  0.59693300     0.65100
H1650       H  0.57744842  0.85584129  0.64523934     0.10500
C1651       C  0.53561391  0.78111032  0.71337149     0.63500
H1652       H  0.49440057  0.78159172  0.66467986     0.07900
F1653       F  0.41969557  0.87850394  0.64351660    -0.19600
F1654       F  0.38459639  0.85568629  0.61325866    -0.15800
F1655       F  0.41507660  0.89198064  0.59208476    -0.19300
F1656       F  0.50032635  0.74988109  0.60758980    -0.22700
F1657       F  0.52768983  0.77923588  0.57398584    -0.24100
F1658       F  0.48878396  0.75155674  0.55542735    -0.18100
F1659       F  0.53492486  0.80049453  0.73953971    -0.20600
F1660       F  0.56080757  0.76239865  0.71521919    -0.21800
F1661       F  0.51008286  0.76268090  0.71472936    -0.19000
F1662       F  0.56240406  0.87322221  0.59403981    -0.19100
F1663       F  0.51190586  0.87680991  0.59852735    -0.22900
F1664       F  0.53301507  0.83891089  0.56964256    -0.24500
C1665       C  0.53327937  0.84637801  0.86641802    -0.11300
C1666       C  0.51389220  0.82110102  0.86363705     0.11300
C1667       C  0.51946631  0.79892424  0.83961648    -0.03100
C1668       C  0.54416153  0.80330453  0.81858222    -0.05800
C1669       C  0.56268360  0.82941815  0.82031001    -0.16600
C1670       C  0.55791608  0.85083777  0.84538002     0.02300
C1671       C  0.48680998  0.81995287  0.88493968     0.12300
C1672       C  0.49899110  0.77123465  0.83565740     0.62900
H1673       H  0.54835213  0.78695851  0.79958997     0.12300
C1674       C  0.57901451  0.87787763  0.85053901     0.55000
H1675       H  0.52841428  0.86313257  0.88486376     0.08100
C1676       C  0.48876104  0.81214980  0.91778734    -0.05700
C1677       C  0.46275082  0.81545410  0.93719758    -0.06500
C1678       C  0.43518263  0.82611455  0.92472636    -0.16100
C1679       C  0.43274796  0.83173637  0.89143952    -0.01600
C1680       C  0.45890730  0.82930209  0.87227204    -0.09200
C1681       C  0.51834052  0.80138133  0.93249772     0.65100
H1682       H  0.46411053  0.81106680  0.96269610     0.10500
C1683       C  0.40353622  0.84031166  0.87478738     0.63500
H1684       H  0.45763028  0.83520788  0.84707015     0.07900
F1685       F  0.57338958  0.89227044  0.87952180    -0.19600
F1686       F  0.57517160  0.89916504  0.82647182    -0.15800
F1687       F  0.60884145  0.86802045  0.85065002    -0.19300
F1688       F  0.47044524  0.78043200  0.82605260    -0.22700
F1689       F  0.49650903  0.75569307  0.86436243    -0.24100
F1690       F  0.51018782  0.75111385  0.81288784    -0.18100
F1691       F  0.40668978  0.86914524  0.86172406    -0.20600
F1692       F  0.37864314  0.83995072  0.89503537    -0.21800
F1693       F  0.39806542  0.81978906  0.85025333    -0.19000
F1694       F  0.51427930  0.79157571  0.96375866    -0.19100
F1695       F  0.53914910  0.82502008  0.93265156    -0.22900
F1696       F  0.53005750  0.77726488  0.91499580    -0.24500
C1697       C  0.18196847  0.53568096  0.63521152    -0.11300
C1698       C  0.16862534  0.50736050  0.64228421     0.11300
C1699       C  0.15462487  0.50251382  0.67237869    -0.03100
C1700       C  0.15256136  0.52717425  0.69368250    -0.05800
C1701       C  0.16382414  0.55628604  0.68579918    -0.16600
C1702       C  0.17958987  0.56059684  0.65642882     0.02300
C1703       C  0.16622056  0.48441257  0.61639891     0.12300
C1704       C  0.14101865  0.47174241  0.68146418     0.62900
H1705       H  0.14136180  0.52406009  0.71665999     0.12300
C1706       C  0.19230615  0.59150432  0.64666227     0.55000
H1707       H  0.19296183  0.53846426  0.61208282     0.08100
C1708       C  0.14322901  0.48664901  0.59300272    -0.05700
C1709       C  0.14071667  0.46333657  0.57013290    -0.06500
C1710       C  0.16009428  0.43780394  0.57013199    -0.16100
C1711       C  0.18272474  0.43531986  0.59415123    -0.01600
C1712       C  0.18578573  0.45919751  0.61653639    -0.09200
C1713       C  0.12137888  0.51356323  0.59223675     0.65100
H1714       H  0.12355314  0.46507851  0.55177420     0.10500
C1715       C  0.20231299  0.40699874  0.59748234     0.63500
H1716       H  0.20305457  0.45810027  0.63485131     0.07900
F1717       F  0.16954520  0.61325389  0.64763086    -0.19600
F1718       F  0.20416965  0.59102287  0.61589094    -0.15800
F1719       F  0.21535981  0.59990004  0.66724855    -0.19300
F1720       F  0.16352107  0.44976168  0.68188192    -0.22700
F1721       F  0.11907828  0.46338422  0.65953684    -0.24100
F1722       F  0.12758657  0.47240460  0.71150891    -0.18100
F1723       F  0.21884689  0.40725404  0.62561270    -0.20600
F1724       F  0.22262281  0.40517346  0.57220982    -0.21800
F1725       F  0.18397733  0.38132886  0.59786664    -0.19000
F1726       F  0.09889431  0.50964570  0.56953399    -0.19100
F1727       F  0.13708802  0.54000405  0.58485399    -0.22900
F1728       F  0.10733600  0.51704506  0.62171247    -0.24500
C1729       C  0.18784590  0.51374548  0.84334280    -0.11300
C1730       C  0.16820495  0.51237483  0.86978288     0.11300
C1731       C  0.14730050  0.53634704  0.87530798    -0.03100
C1732       C  0.14454846  0.55948567  0.85211637    -0.05800
C1733       C  0.16313540  0.56019721  0.82467888    -0.16600
C1734       C  0.18606434  0.53761524  0.82077677     0.02300
C1735       C  0.16857221  0.48466288  0.89030273     0.12300
C1736       C  0.12822983  0.53745817  0.90572021     0.62900
H1737       H  0.12765107  0.57726849  0.85515752     0.12300
C1738       C  0.20805948  0.53813110  0.79264379     0.55000
H1739       H  0.20420529  0.49547755  0.84022571     0.08100
C1740       C  0.14998346  0.45917194  0.88329356    -0.05700
C1741       C  0.14883668  0.43491429  0.90527490    -0.06500
C1742       C  0.16550012  0.43531320  0.93386729    -0.16100
C1743       C  0.18550331  0.46016041  0.93997986    -0.01600
C1744       C  0.18673689  0.48445178  0.91779466    -0.09200
C1745       C  0.13124290  0.45779543  0.85281610     0.65100
H1746       H  0.13447406  0.41537565  0.90044594     0.10500
C1747       C  0.20436399  0.46188596  0.97032475     0.63500
H1748       H  0.20115334  0.50406955  0.92221345     0.07900
F1749       F  0.22645636  0.51249774  0.79200495    -0.19600
F1750       F  0.22662193  0.56353373  0.79497585    -0.15800
F1751       F  0.19228569  0.53912420  0.76408965    -0.19300
F1752       F  0.14715458  0.53941687  0.93198482    -0.22700
F1753       F  0.11061513  0.51143516  0.90846871    -0.24100
F1754       F  0.10905650  0.56249511  0.90620127    -0.18100
F1755       F  0.22479369  0.43793215  0.97106709    -0.20600
F1756       F  0.18557062  0.46043741  0.99692204    -0.21800
F1757       F  0.22081794  0.48880173  0.97208528    -0.19000
F1758       F  0.11419281  0.43128407  0.85106953    -0.19100
F1759       F  0.15029217  0.45871472  0.82643568    -0.22900
F1760       F  0.11147472  0.48226240  0.85149112    -0.24500
C1761       C  0.98361279  0.67796707  0.58471733    -0.11300
C1762       C  0.97985842  0.66199604  0.61354554     0.11300
C1763       C  0.95206409  0.64683267  0.61979547    -0.03100
C1764       C  0.92987110  0.64595531  0.59561141    -0.05800
C1765       C  0.93416813  0.66059504  0.56600168    -0.16600
C1766       C  0.96130805  0.67761147  0.56063455     0.02300
C1767       C  0.00568453  0.66079608  0.63646607     0.12300
C1768       C  0.94598771  0.63163276  0.65188581     0.62900
H1769       H  0.90896693  0.63337970  0.59947375     0.12300
C1770       C  0.96891130  0.69497208  0.53009771     0.55000
H1771       H  0.00472877  0.69017645  0.58058653     0.08100
C1772       C  0.02893537  0.63862955  0.63370444    -0.05700
C1773       C  0.05139324  0.63723016  0.65758633    -0.06500
C1774       C  0.05183810  0.65771812  0.68358551    -0.16100
C1775       C  0.02923037  0.68096024  0.68537573    -0.01600
C1776       C  0.00651411  0.68193282  0.66166168    -0.09200
C1777       C  0.02998294  0.61658273  0.60557265     0.65100
H1778       H  0.06895752  0.62001785  0.65606747     0.10500
C1779       C  0.02844417  0.70443553  0.71224618     0.63500
H1780       H  0.98887691  0.69911112  0.66268731     0.07900
F1781       F  0.99567167  0.68368921  0.51726317    -0.19600
F1782       F  0.97306842  0.72551182  0.53743078    -0.15800
F1783       F  0.94680421  0.69301587  0.50689803    -0.19300
F1784       F  0.94723424  0.65325135  0.67601382    -0.22700
F1785       F  0.96749736  0.60935503  0.65764278    -0.24100
F1786       F  0.91761373  0.61803849  0.65297291    -0.18100
F1787       F  0.05303439  0.72391604  0.70932318    -0.20600
F1788       F  0.02932280  0.69005725  0.74169898    -0.21800
F1789       F  0.00231803  0.72198603  0.71146054    -0.19000
F1790       F  0.05417481  0.59651992  0.60771238    -0.19100
F1791       F  0.03304707  0.63276101  0.57730640    -0.22900
F1792       F  0.00355534  0.59957489  0.60447452    -0.24500
C1793       C  0.98804549  0.64874583  0.92287412    -0.11300
C1794       C  0.98322863  0.66777534  0.89649887     0.11300
C1795       C  0.95526367  0.68327971  0.89302551    -0.03100
C1796       C  0.93270093  0.67896576  0.91649949    -0.05800
C1797       C  0.93709793  0.65896214  0.94231840    -0.16600
C1798       C  0.96554677  0.64414219  0.94617847     0.02300
C1799       C  0.00640527  0.66710168  0.87088967     0.12300
C1800       C  0.94901976  0.70352555  0.86426895     0.62900
H1801       H  0.91093349  0.69018819  0.91415411     0.12300
C1802       C  0.97245460  0.62338836  0.97445511     0.55000
H1803       H  0.00934407  0.63649417  0.92434069     0.08100
C1804       C  0.03426354  0.68296817  0.87315188    -0.05700
C1805       C  0.05615371  0.67849241  0.84899914    -0.06500
C1806       C  0.05135964  0.65787988  0.82363495    -0.16100
C1807       C  0.02322664  0.64182238  0.82169176    -0.01600
C1808       C  0.00135100  0.64687732  0.84556603    -0.09200
C1809       C  0.04103134  0.70391784  0.90126285     0.65100
H1810       H  0.07766450  0.69040601  0.85032732     0.10500
C1811       C  0.01581363  0.61924599  0.79501889     0.63500
H1812       H  0.98016454  0.63428646  0.84529766     0.07900
F1813       F  0.00312580  0.61671826  0.97641898    -0.19600
F1814       F  0.95691358  0.59611466  0.97123663    -0.15800
F1815       F  0.96401511  0.63737013  0.00282810    -0.19300
F1816       F  0.94907550  0.68620663  0.83657112    -0.22700
F1817       F  0.97111730  0.72584188  0.86184491    -0.24100
F1818       F  0.92109534  0.71786643  0.86667980    -0.18100
F1819       F  0.03352828  0.59335356  0.79815208    -0.20600
F1820       F  0.02095293  0.63245033  0.76541504    -0.21800
F1821       F  0.98571777  0.61007885  0.79592252    -0.19000
F1822       F  0.06886607  0.71830968  0.89790626    -0.19100
F1823       F  0.04158402  0.68722676  0.92934780    -0.22900
F1824       F  0.01891638  0.72618188  0.90368375    -0.24500
C1825       C  0.26824660  0.76939639  0.62478822    -0.11300
C1826       C  0.24099015  0.75811957  0.61220991     0.11300
C1827       C  0.23186343  0.76658809  0.58103058    -0.03100
C1828       C  0.25188088  0.78425232  0.56240375    -0.05800
C1829       C  0.27989119  0.79439682  0.57448460    -0.16600
C1830       C  0.28762254  0.78816309  0.60671059     0.02300
C1831       C  0.22189972  0.73888277  0.63327766     0.12300
C1832       C  0.20129384  0.75699594  0.56753248     0.62900
H1833       H  0.24606583  0.78981731  0.53794311     0.12300
C1834       C  0.31498001  0.80150852  0.62369489     0.55000
H1835       H  0.27416474  0.76387882  0.64927562     0.08100
C1836       C  0.22824979  0.70764718  0.63836630    -0.05700
C1837       C  0.21122001  0.69172436  0.66145850    -0.06500
C1838       C  0.18814960  0.70602499  0.67946799    -0.16100
C1839       C  0.18078496  0.73717073  0.67287679    -0.01600
C1840       C  0.19839917  0.75307271  0.65022544    -0.09200
C1841       C  0.25334928  0.69143319  0.61996686     0.65100
H1842       H  0.21630347  0.66794873  0.66603008     0.10500
C1843       C  0.15516515  0.75422863  0.68974170     0.63500
H1844       H  0.19439949  0.77709041  0.64583671     0.07900
F1845       F  0.33498929  0.77828098  0.63112744    -0.19600
F1846       F  0.30553485  0.81539984  0.65182369    -0.15800
F1847       F  0.33009637  0.82326741  0.60577146    -0.19300
F1848       F  0.17814779  0.76922872  0.58594476    -0.22700
F1849       F  0.19877746  0.72552287  0.56762138    -0.24100
F1850       F  0.19744362  0.76706196  0.53637187    -0.18100
F1851       F  0.15302509  0.78429788  0.67968775    -0.20600
F1852       F  0.16004182  0.75452544  0.72245871    -0.21800
F1853       F  0.12768021  0.74031596  0.68309743    -0.19000
F1854       F  0.25433202  0.66053350  0.62697885    -0.19100
F1855       F  0.28115307  0.70400902  0.62772183    -0.22900
F1856       F  0.24872025  0.69447338  0.58739796    -0.24500
C1857       C  0.25857844  0.79481072  0.87547200    -0.11300
C1858       C  0.25334908  0.76364409  0.88134829     0.11300
C1859       C  0.26621096  0.74967797  0.90864796    -0.03100
C1860       C  0.28319247  0.76774964  0.92982237    -0.05800
C1861       C  0.28777540  0.79914592  0.92464424    -0.16600
C1862       C  0.27531731  0.81307489  0.89698711     0.02300
C1863       C  0.23411322  0.74598266  0.85873388     0.12300
C1864       C  0.26233173  0.71572840  0.91523193     0.62900
H1865       H  0.29299226  0.75740931  0.95094152     0.12300
C1866       C  0.27974912  0.84681838  0.89004775     0.55000
H1867       H  0.24886732  0.80481873  0.85414414     0.08100
C1868       C  0.20202664  0.74643532  0.86051086    -0.05700
C1869       C  0.18531612  0.72724408  0.83992001    -0.06500
C1870       C  0.19974307  0.70760034  0.81793033    -0.16100
C1871       C  0.23208408  0.70802881  0.81560768    -0.01600
C1872       C  0.24855907  0.72744294  0.83604796    -0.09200
C1873       C  0.18568319  0.76690934  0.88437604     0.65100
H1874       H  0.16076323  0.72716631  0.84113858     0.10500
C1875       C  0.24949027  0.68869663  0.79138690     0.63500
H1876       H  0.27312215  0.72791403  0.83501042     0.07900
F1877       F  0.26941011  0.85460465  0.85985511    -0.19600
F1878       F  0.31023406  0.85421769  0.89158327    -0.15800
F1879       F  0.26383439  0.86396796  0.91229371    -0.19300
F1880       F  0.27723826  0.69905447  0.89184955    -0.22700
F1881       F  0.23190183  0.70798020  0.91519938    -0.24100
F1882       F  0.27416989  0.70749937  0.94466052    -0.18100
F1883       F  0.23799974  0.69331860  0.76097693    -0.20600
F1884       F  0.24718902  0.65812244  0.79942332    -0.21800
F1885       F  0.28005762  0.69606036  0.79051809    -0.19000
F1886       F  0.15447970  0.76372370  0.88255772    -0.19100
F1887       F  0.19273589  0.79714673  0.87832066    -0.22900
F1888       F  0.19449615  0.75967852  0.91520514    -0.24500
loop_ 
_geom_bond_atom_site_label_1 
_geom_bond_atom_site_label_2 
_geom_bond_distance 
_geom_bond_site_symmetry_2 
_ccdc_geom_bond_type 
Fe1          O17   2.064       .  S
Fe1           O7   2.043       .  S
Fe1          O14   2.044       .  S
Fe1           O6   2.060       .  S
Fe1          O12   1.964       .  S
Fe2           O5   2.066       .  S
Fe2           O9   2.071       .  S
Fe2          O13   2.074       .  S
Fe2          O18   2.063       .  S
Fe2          O12   1.978       .  S
Fe3          O21   2.063       .  S
Fe3           O8   2.071       .  S
Fe3          O15   2.079       .  S
Fe3           O4   2.065       .  S
Fe3          O12   1.977       .  S
O4           C11   1.267       .  A
O5           C19   1.266       .  A
O6           C11   1.268       .  A
O7           C10   1.264       .  A
O8           C20   1.271       .  A
O9           C22   1.271       .  A
C10          O15   1.271       .  A
C10         C862   1.481       .  S
C11         C830   1.479       .  S
O13          C16   1.267       .  A
O14          C16   1.263       .  A
C16         C757   1.466       .  S
O17          C22   1.270       .  A
O18          C20   1.272       .  A
C19          O21   1.267       .  A
C19         C926   1.471       .  S
C20         C894   1.478       .  S
C22         C789   1.485       .  S
Fe23         O39   2.069   1_556  S
Fe23         O29   2.053   1_556  S
Fe23        O980   2.051       .  S
Fe23        O972   2.070       .  S
Fe23        O978   1.976       .  S
Fe24         O35   2.065       .  S
Fe24         O40   2.060       .  S
Fe24        O971   2.060       .  S
Fe24        O975   2.065       .  S
Fe24         O34   1.972       .  S
Fe25         O30   2.079       .  S
Fe25         O26   2.072       .  S
Fe25        O987   2.065       .  S
Fe25        O981   2.086       .  S
Fe25         O34   1.974       .  S
O26          C33   1.270       .  A
O27        Fe968   2.062   1_554  S
O27          C41   1.265       .  A
O28        Fe967   2.067       .  S
O28          C33   1.270       .  A
O29          C32   1.266       .  A
O30          C42   1.273       .  A
O31        Fe968   2.076   1_554  S
O31          C44   1.271       .  A
C32          O37   1.268       .  A
C32         C693   1.466       .  S
C33         C734   1.472       .  S
O34        Fe967   1.961       .  S
O35          C38   1.265       .  A
O36        Fe967   2.061       .  S
O36          C38   1.267       .  A
O37        Fe969   2.065   1_554  S
C38         C661   1.471       .  S
O39          C44   1.271       .  A
O40          C42   1.268       .  A
C41          O43   1.266       .  A
C41         C885   1.481       .  S
C42         C917   1.494       .  S
O43        Fe969   2.058   1_554  S
C44         C629   1.495       .  S
Fe45         O61   2.070       .  S
Fe45         O51   2.051       .  S
Fe45       O1002   2.053       .  S
Fe45        O994   2.070       .  S
Fe45       O1000   1.974       .  S
Fe46         O57   2.080   1_556  S
Fe46         O62   2.067   1_556  S
Fe46        O993   2.070       .  S
Fe46        O997   2.069       .  S
Fe46         O56   1.977   1_556  S
Fe47         O52   2.073       .  S
Fe47         O48   2.075       .  S
Fe47       O1009   2.069   1_554  S
Fe47       O1003   2.077   1_554  S
Fe47         O56   1.976       .  S
O48          C55   1.268       .  A
O49        Fe990   2.071       .  S
O49          C63   1.269       .  A
O50        Fe989   2.062       .  S
O50          C55   1.266       .  A
O51          C54   1.264       .  A
O52          C64   1.271       .  A
O53        Fe990   2.080       .  S
O53          C66   1.272       .  A
C54          O59   1.268       .  A
C54         C853   1.478       .  S
C55         C821   1.479       .  S
O56        Fe989   1.973       .  S
O57          C60   1.271       .  A
O58        Fe989   2.049       .  S
O58          C60   1.266       .  A
O59        Fe991   2.066       .  S
C60         C501   1.473       .  S
O61          C66   1.270       .  A
O62          C64   1.271       .  A
C63          O65   1.273       .  A
C63         C574   1.500       .  S
C64         C606   1.474       .  S
O65        Fe991   2.077       .  S
C66         C533   1.491       .  S
Fe67         O83   2.061       .  S
Fe67         O73   2.065       .  S
Fe67         O80   2.059       .  S
Fe67         O72   2.063       .  S
Fe67         O78   1.976       .  S
Fe68         O71   2.063       .  S
Fe68         O75   2.079       .  S
Fe68         O79   2.072       .  S
Fe68         O84   2.073       .  S
Fe68         O78   1.983       .  S
Fe69         O87   2.058       .  S
Fe69         O74   2.068       .  S
Fe69         O81   2.067       .  S
Fe69         O70   2.067       .  S
Fe69         O78   1.981       .  S
O70          C77   1.268       .  A
O71          C85   1.269       .  A
O72          C77   1.266       .  A
O73          C76   1.271       .  A
O74          C86   1.270       .  A
O75          C88   1.271       .  A
C76          O81   1.268       .  A
C76         C702   1.500       .  S
C77         C725   1.490       .  S
O79          C82   1.269       .  A
O80          C82   1.269       .  A
C82         C469   1.483       .  S
O83          C88   1.266       .  A
O84          C86   1.271       .  A
C85          O87   1.264       .  A
C85         C597   1.490       .  S
C86         C565   1.475       .  S
C88         C437   1.492       .  S
Fe89        O105   2.058       .  S
Fe89         O95   2.052       .  S
Fe89       O1046   2.050       .  S
Fe89       O1038   2.060       .  S
Fe89       O1044   1.977       .  S
Fe90         O93   2.070       .  S
Fe90         O97   2.077       .  S
Fe90       O1045   2.070       .  S
Fe90       O1050   2.075       .  S
Fe90       O1044   1.983       .  S
Fe91         O96   2.064   1_556  S
Fe91         O92   2.073   1_556  S
Fe91       O1053   2.075       .  S
Fe91       O1047   2.071       .  S
Fe91        O100   1.972   1_556  S
O92          C99   1.271       .  A
O93         C107   1.269       .  A
O94       Fe1033   2.054   1_554  S
O94          C99   1.268       .  A
O95          C98   1.265       .  A
O96         C108   1.267       .  A
O97         C110   1.270       .  A
C98         O103   1.268       .  A
C98         C341   1.474       .  S
C99         C309   1.474       .  S
O100      Fe1033   1.962   1_554  S
O100      Fe1034   1.969       .  S
O101      Fe1034   2.056       .  S
O101        C104   1.264       .  A
O102      Fe1033   2.071   1_554  S
O102        C104   1.271       .  A
O103      Fe1035   2.069       .  S
C104        C766   1.498       .  S
O105        C110   1.266       .  A
O106      Fe1034   2.081       .  S
O106        C108   1.271       .  A
C107        O109   1.272       .  A
C107        C414   1.497       .  S
C108        C382   1.495       .  S
O109      Fe1035   2.072       .  S
C110        C798   1.473       .  S
Fe111       O127   2.061       .  S
Fe111       O117   2.054       .  S
Fe111       O124   2.044       .  S
Fe111       O116   2.071       .  S
Fe111       O122   1.963       .  S
Fe112       O115   2.072       .  S
Fe112       O119   2.068       .  S
Fe112       O123   2.075       .  S
Fe112       O128   2.067       .  S
Fe112       O122   1.974       .  S
Fe113       O131   2.069       .  S
Fe113       O118   2.075       .  S
Fe113       O125   2.083       .  S
Fe113       O114   2.074       .  S
Fe113       O122   1.972       .  S
O114        C121   1.271       .  A
O115        C129   1.271       .  A
O116        C121   1.269       .  A
O117        C120   1.267       .  A
O118        C130   1.270       .  A
O119        C132   1.268       .  A
C120        O125   1.269       .  A
C120        C670   1.501       .  S
C121        C638   1.476       .  S
O123        C126   1.270       .  A
O124        C126   1.265       .  A
C126        C245   1.474       .  S
O127        C132   1.268       .  A
O128        C130   1.268       .  A
C129        O131   1.272       .  A
C129        C405   1.473       .  S
C130        C373   1.484       .  S
C132        C286   1.472       .  S
Fe133       O149   2.069       .  S
Fe133       O139   2.052       .  S
Fe133      O1090   2.054       .  S
Fe133      O1082   2.075       .  S
Fe133      O1088   1.972       .  S
Fe134       O145   2.068   1_556  S
Fe134       O150   2.058   1_556  S
Fe134      O1081   2.062       .  S
Fe134      O1085   2.067       .  S
Fe134       O144   1.982       .  S
Fe135       O140   2.062   1_556  S
Fe135       O136   2.080   1_556  S
Fe135      O1097   2.077       .  S
Fe135      O1091   2.075       .  S
Fe135       O144   1.982       .  S
O136        C143   1.270       .  A
O137      Fe1078   2.069       .  S
O137        C151   1.270       .  A
O138      Fe1077   2.066   1_554  S
O138        C143   1.267       .  A
O139        C142   1.264       .  A
O140        C152   1.270       .  A
O141      Fe1078   2.060       .  S
O141        C154   1.266       .  A
C142        O147   1.269       .  A
C142        C478   1.481       .  S
C143        C446   1.479       .  S
O144      Fe1077   1.968       .  S
O145        C148   1.268       .  A
O146      Fe1077   2.041   1_554  S
O146        C148   1.263       .  A
O147      Fe1079   2.079       .  S
C148        C254   1.475       .  S
O149        C154   1.270       .  A
O150        C152   1.267       .  A
C151        O153   1.270       .  A
C151        C213   1.475       .  S
C152        C181   1.478       .  S
O153      Fe1079   2.054       .  S
C154        C277   1.481       .  S
Fe155       O171   2.067       .  S
Fe155       O161   2.065       .  S
Fe155       O168   2.071       .  S
Fe155       O160   2.061       .  S
Fe155       O166   1.965       .  S
Fe156       O159   2.051       .  S
Fe156       O163   2.080       .  S
Fe156       O167   2.057       .  S
Fe156       O172   2.070       .  S
Fe156       O166   1.973       .  S
Fe157       O175   2.064       .  S
Fe157       O162   2.059       .  S
Fe157       O169   2.065       .  S
Fe157       O158   2.069       .  S
Fe157       O166   1.977       .  S
O158        C165   1.270       .  A
O159        C173   1.269       .  A
O160        C165   1.269       .  A
O161        C164   1.269       .  A
O162        C174   1.266       .  A
O163        C176   1.270       .  A
C164        O169   1.266       .  A
C164        C350   1.489       .  S
C165        C318   1.480       .  S
O167        C170   1.266       .  A
O168        C170   1.271       .  A
C170        C510   1.481       .  S
O171        C176   1.269       .  A
O172        C174   1.269       .  A
C173        O175   1.268       .  A
C173        C222   1.477       .  S
C174        C190   1.483       .  S
C176        C542   1.481       .  S
C177        C178   1.403       .  A
C177        C182   1.407       .  A
C177        H187   1.082       .  S
C178        C183   1.481       .  S
C178        C179   1.414       .  A
C179        C180   1.403       .  A
C179        C184   1.520       .  S
C180        C181   1.405       .  A
C180        H185   1.082       .  S
C181        C182   1.418       .  A
C182        C186   1.520       .  S
C183        C188   1.415       .  A
C183        C192   1.399       .  A
C184        F200   1.382       .  S
C184        F201   1.382       .  S
C184        F202   1.385       .  S
C186        F197   1.382       .  S
C186        F198   1.384       .  S
C186        F199   1.384       .  S
C188        C189   1.406       .  A
C188        C193   1.520       .  S
C189        C190   1.406       .  A
C189        H194   1.083       .  S
C190        C191   1.422       .  A
C191        C192   1.406       .  A
C191        C195   1.520       .  S
C192        H196   1.083       .  S
C193        F206   1.384       .  S
C193        F207   1.382       .  S
C193        F208   1.382       .  S
C195        F203   1.385       .  S
C195        F204   1.383       .  S
C195        F205   1.382       .  S
C209        C210   1.399       .  A
C209        C214   1.403       .  A
C209        H219   1.083       .  S
C210        C215   1.474       .  S
C210        C211   1.413       .  A
C211        C212   1.403       .  A
C211        C216   1.520       .  S
C212        C213   1.404       .  A
C212        H217   1.082       .  S
C213        C214   1.420       .  A
C214        C218   1.520       .  S
C215        C220   1.412       .  A
C215        C224   1.401       .  A
C216        F232   1.382       .  S
C216        F233   1.382       .  S
C216        F234   1.385       .  S
C218        F229   1.382       .  S
C218        F230   1.385       .  S
C218        F231   1.383       .  S
C220        C221   1.401       .  A
C220        C225   1.521       .  S
C221        C222   1.406       .  A
C221        H226   1.083       .  S
C222        C223   1.420       .  A
C223        C224   1.405       .  A
C223        C227   1.520       .  S
C224        H228   1.083       .  S
C225        F238   1.384       .  S
C225        F239   1.382       .  S
C225        F240   1.382       .  S
C227        F235   1.385       .  S
C227        F236   1.384       .  S
C227        F237   1.382       .  S
C241        C242   1.398       .  A
C241        C246   1.400       .  A
C241        H251   1.085       .  S
C242        C247   1.475       .  S
C242        C243   1.416       .  A
C243        C244   1.406       .  A
C243        C248   1.519       .  S
C244        C245   1.403       .  A
C244        H249   1.085       .  S
C245        C246   1.421       .  A
C246        C250   1.522       .  S
C247        C252   1.414       .  A
C247        C256   1.398       .  A
C248        F264   1.382       .  S
C248        F265   1.382       .  S
C248        F266   1.384       .  S
C250        F261   1.385       .  S
C250        F262   1.382       .  S
C250        F263   1.382       .  S
C252        C253   1.406       .  A
C252        C257   1.518       .  S
C253        C254   1.405       .  A
C253        H258   1.081       .  S
C254        C255   1.421       .  A
C255        C256   1.399       .  A
C255        C259   1.523       .  S
C256        H260   1.084       .  S
C257        F270   1.385       .  S
C257        F271   1.382       .  S
C257        F272   1.382       .  S
C259        F267   1.382       .  S
C259        F268   1.384       .  S
C259        F269   1.385       .  S
C273        C274   1.398       .  A
C273        C278   1.406       .  A
C273        H283   1.084       .  S
C274        C279   1.481       .  S
C274        C275   1.416       .  A
C275        C276   1.406       .  A
C275        C280   1.520       .  S
C276        C277   1.403       .  A
C276        H281   1.084       .  S
C277        C278   1.422       .  A
C278        C282   1.520       .  S
C279        C284   1.415       .  A
C279        C288   1.399       .  A
C280        F296   1.383       .  S
C280        F297   1.382       .  S
C280        F298   1.385       .  S
C282        F293   1.385       .  S
C282        F294   1.382       .  S
C282        F295   1.382       .  S
C284        C285   1.404       .  A
C284        C289   1.519       .  S
C285        C286   1.402       .  A
C285        H290   1.084       .  S
C286        C287   1.423       .  A
C287        C288   1.405       .  A
C287        C291   1.520       .  S
C288        H292   1.085       .  S
C289        F302   1.384       .  S
C289        F303   1.383       .  S
C289        F304   1.382       .  S
C291        F299   1.383       .  S
C291        F300   1.379       .  S
C291        F301   1.384       .  S
C305        C306   1.402       .  A
C305        C310   1.403       .  A
C305        H315   1.085       .  S
C306        C311   1.478   1_455  S
C306        C307   1.414       .  A
C307        C308   1.406       .  A
C307        C312   1.520   1_455  S
C308        C309   1.405       .  A
C308        H313   1.085       .  S
C309        C310   1.416       .  A
C310        C314   1.520       .  S
C311        C316   1.415       .  A
C311        C320   1.399       .  A
C312        F328   1.382       .  S
C312        F329   1.382       .  S
C312        F330   1.384       .  S
C314        F325   1.384       .  S
C314        F326   1.382       .  S
C314        F327   1.384       .  S
C316        C317   1.406       .  A
C316        C321   1.520   1_655  S
C317        C318   1.405       .  A
C317        H322   1.084       .  S
C318        C319   1.418       .  A
C319        C320   1.402       .  A
C319        C323   1.515       .  S
C320        H324   1.085       .  S
C321        F334   1.384   1_455  S
C321        F335   1.382       .  S
C321        F336   1.381       .  S
C323        F331   1.381       .  S
C323        F332   1.384       .  S
C323        F333   1.385       .  S
C337        C338   1.403       .  A
C337        C342   1.405       .  A
C337        H347   1.084       .  S
C338        C343   1.484   1_455  S
C338        C339   1.416       .  A
C339        C340   1.406       .  A
C339        C344   1.519   1_455  S
C340        C341   1.404       .  A
C340        H345   1.085       .  S
C341        C342   1.416       .  A
C342        C346   1.520       .  S
C343        C348   1.415       .  A
C343        C352   1.402       .  A
C344        F360   1.382       .  S
C344        F361   1.383       .  S
C344        F362   1.385       .  S
C346        F357   1.384       .  S
C346        F358   1.383       .  S
C346        F359   1.383       .  S
C348        C349   1.402       .  A
C348        C353   1.522       .  S
C349        C350   1.405       .  A
C349        H354   1.080       .  S
C350        C351   1.423       .  A
C351        C352   1.411       .  A
C351        C355   1.519       .  S
C352        H356   1.083       .  S
C353        F366   1.384       .  S
C353        F367   1.381       .  S
C353        F368   1.383       .  S
C355        F363   1.385       .  S
C355        F364   1.383       .  S
C355        F365   1.383       .  S
C369        C370   1.403       .  A
C369        C374   1.409       .  A
C369        H379   1.083       .  S
C370        C375   1.488       .  S
C370        C371   1.416       .  A
C371        C372   1.408       .  A
C371        C376   1.520       .  S
C372        C373   1.406       .  A
C372        H377   1.083       .  S
C373        C374   1.417       .  A
C374        C378   1.518       .  S
C375        C380   1.415       .  A
C375        C384   1.399       .  A
C376        F392   1.382       .  S
C376        F393   1.381       .  S
C376        F394   1.385       .  S
C378        F389   1.382       .  S
C378        F390   1.385       .  S
C378        F391   1.384       .  S
C380        C381   1.410       .  A
C380        C385   1.520       .  S
C381        C382   1.408       .  A
C381        H386   1.082       .  S
C382        C383   1.426       .  A
C383        C384   1.409       .  A
C383        C387   1.521       .  S
C384        H388   1.083       .  S
C385        F398   1.384       .  S
C385        F399   1.382       .  S
C385        F400   1.382       .  S
C387        F395   1.385       .  S
C387        F396   1.383       .  S
C387        F397   1.383       .  S
C401        C402   1.405       .  A
C401        C406   1.409       .  A
C401        H411   1.082       .  S
C402        C407   1.487       .  S
C402        C403   1.417       .  A
C403        C404   1.407       .  A
C403        C408   1.519       .  S
C404        C405   1.401       .  A
C404        H409   1.082       .  S
C405        C406   1.413       .  A
C406        C410   1.517       .  S
C407        C412   1.413       .  A
C407        C416   1.400       .  A
C408        F424   1.382       .  S
C408        F425   1.381       .  S
C408        F426   1.385       .  S
C410        F421   1.384       .  S
C410        F422   1.383       .  S
C410        F423   1.383       .  S
C412        C413   1.408       .  A
C412        C417   1.520       .  S
C413        C414   1.410       .  A
C413        H418   1.082       .  S
C414        C415   1.426       .  A
C415        C416   1.410       .  A
C415        C419   1.520       .  S
C416        H420   1.083       .  S
C417        F430   1.385       .  S
C417        F431   1.382       .  S
C417        F432   1.382       .  S
C419        F427   1.385       .  S
C419        F428   1.383       .  S
C419        F429   1.384       .  S
C433        C434   1.401       .  A
C433        C438   1.407       .  A
C433        H443   1.083       .  S
C434        C439   1.491   1_565  S
C434        C435   1.416       .  A
C435        C436   1.411       .  A
C435        C440   1.519       .  S
C436        C437   1.408       .  A
C436        H441   1.082       .  S
C437        C438   1.423       .  A
C438        C442   1.520       .  S
C439        C444   1.418   1_545  A
C439        C448   1.406       .  A
C440        F456   1.382   1_565  S
C440        F457   1.382       .  S
C440        F458   1.385       .  S
C442        F453   1.384       .  S
C442        F454   1.385       .  S
C442        F455   1.382       .  S
C444        C445   1.409   1_565  A
C444        C449   1.521       .  S
C445        C446   1.403       .  A
C445        H450   1.083       .  S
C446        C447   1.413       .  A
C447        C448   1.411       .  A
C447        C451   1.516       .  S
C448        H452   1.083       .  S
C449        F462   1.384       .  S
C449        F463   1.382       .  S
C449        F464   1.382       .  S
C451        F459   1.384       .  S
C451        F460   1.383       .  S
C451        F461   1.383       .  S
C465        C466   1.403       .  A
C465        C470   1.410       .  A
C465        H475   1.084       .  S
C466        C471   1.482   1_565  S
C466        C467   1.418       .  A
C467        C468   1.401       .  A
C467        C472   1.521       .  S
C468        C469   1.402       .  A
C468        H473   1.086       .  S
C469        C470   1.421       .  A
C470        C474   1.520       .  S
C471        C476   1.414       .  A
C471        C480   1.401       .  A
C472        F488   1.383       .  S
C472        F489   1.381       .  S
C472        F490   1.383       .  S
C474        F485   1.383       .  S
C474        F486   1.385       .  S
C474        F487   1.383       .  S
C476        C477   1.409       .  A
C476        C481   1.517   1_545  S
C477        C478   1.407       .  A
C477        H482   1.082       .  S
C478        C479   1.419       .  A
C479        C480   1.405       .  A
C479        C483   1.517       .  S
C480        H484   1.083       .  S
C481        F494   1.384       .  S
C481        F495   1.383       .  S
C481        F496   1.383       .  S
C483        F491   1.384       .  S
C483        F492   1.382       .  S
C483        F493   1.385       .  S
C497        C498   1.401       .  A
C497        C502   1.403       .  A
C497        H507   1.086       .  S
C498        C503   1.478       .  S
C498        C499   1.414       .  A
C499        C500   1.406       .  A
C499        C504   1.519       .  S
C500        C501   1.404       .  A
C500        H505   1.085       .  S
C501        C502   1.416       .  A
C502        C506   1.517       .  S
C503        C508   1.415       .  A
C503        C512   1.400       .  A
C504        F520   1.382       .  S
C504        F521   1.382       .  S
C504        F522   1.384       .  S
C506        F517   1.382       .  S
C506        F518   1.385       .  S
C506        F519   1.384       .  S
C508        C509   1.401       .  A
C508        C513   1.523       .  S
C509        C510   1.401       .  A
C509        H514   1.094       .  S
C510        C511   1.421       .  A
C511        C512   1.408       .  A
C511        C515   1.519       .  S
C512        H516   1.086       .  S
C513        F526   1.384       .  S
C513        F527   1.382       .  S
C513        F528   1.382       .  S
C515        F523   1.384       .  S
C515        F524   1.382       .  S
C515        F525   1.383       .  S
C529        C530   1.402       .  A
C529        C534   1.407       .  A
C529        H539   1.084       .  S
C530        C535   1.490       .  S
C530        C531   1.416       .  A
C531        C532   1.413       .  A
C531        C536   1.519       .  S
C532        C533   1.408       .  A
C532        H537   1.083       .  S
C533        C534   1.421       .  A
C534        C538   1.520       .  S
C535        C540   1.418       .  A
C535        C544   1.404       .  A
C536        F552   1.382       .  S
C536        F553   1.381       .  S
C536        F554   1.385       .  S
C538        F549   1.383       .  S
C538        F550   1.385       .  S
C538        F551   1.383       .  S
C540        C541   1.409       .  A
C540        C545   1.520       .  S
C541        C542   1.403       .  A
C541        H546   1.082       .  S
C542        C543   1.414       .  A
C543        C544   1.408       .  A
C543        C547   1.515       .  S
C544        H548   1.084       .  S
C545        F558   1.385       .  S
C545        F559   1.381       .  S
C545        F560   1.381       .  S
C547        F555   1.384       .  S
C547        F556   1.379       .  S
C547        F557   1.384       .  S
C561        C562   1.406       .  A
C561        C566   1.410       .  A
C561        H571   1.084       .  S
C562        C567   1.490       .  S
C562        C563   1.418       .  A
C563        C564   1.408       .  A
C563        C568   1.520       .  S
C564        C565   1.402       .  A
C564        H569   1.085       .  S
C565        C566   1.413       .  A
C566        C570   1.517       .  S
C567        C572   1.415       .  A
C567        C576   1.400       .  A
C568        F584   1.382       .  S
C568        F585   1.382       .  S
C568        F586   1.385       .  S
C570        F581   1.384       .  S
C570        F582   1.383       .  S
C570        F583   1.384       .  S
C572        C573   1.410       .  A
C572        C577   1.520       .  S
C573        C574   1.411       .  A
C573        H578   1.082       .  S
C574        C575   1.426       .  A
C575        C576   1.409       .  A
C575        C579   1.520       .  S
C576        H580   1.083       .  S
C577        F590   1.385       .  S
C577        F591   1.382       .  S
C577        F592   1.382       .  S
C579        F587   1.383       .  S
C579        F588   1.384       .  S
C579        F589   1.385       .  S
C593        C594   1.400       .  A
C593        C598   1.408       .  A
C593        H603   1.083       .  S
C594        C599   1.484       .  S
C594        C595   1.414       .  A
C595        C596   1.405       .  A
C595        C600   1.519       .  S
C596        C597   1.407       .  A
C596        H601   1.083       .  S
C597        C598   1.426       .  A
C598        C602   1.522       .  S
C599        C604   1.419       .  A
C599        C608   1.400       .  A
C600        F616   1.382       .  S
C600        F617   1.382       .  S
C600        F618   1.385       .  S
C602        F613   1.384       .  S
C602        F614   1.385       .  S
C602        F615   1.383       .  S
C604        C605   1.408       .  A
C604        C609   1.519       .  S
C605        C606   1.400       .  A
C605        H610   1.083       .  S
C606        C607   1.416       .  A
C607        C608   1.405       .  A
C607        C611   1.518       .  S
C608        H612   1.083       .  S
C609        F622   1.384       .  S
C609        F623   1.382       .  S
C609        F624   1.383       .  S
C611        F619   1.385       .  S
C611        F620   1.382       .  S
C611        F621   1.382       .  S
C625        C626   1.399       .  A
C625        C630   1.409       .  A
C625        H635   1.084       .  S
C626        C631   1.487   1_565  S
C626        C627   1.415       .  A
C627        C628   1.408       .  A
C627        C632   1.520       .  S
C628        C629   1.409       .  A
C628        H633   1.084       .  S
C629        C630   1.425       .  A
C630        C634   1.519       .  S
C631        C636   1.418       .  A
C631        C640   1.402       .  A
C632        F648   1.382       .  S
C632        F649   1.382       .  S
C632        F650   1.385       .  S
C634        F645   1.385       .  S
C634        F646   1.383       .  S
C634        F647   1.381       .  S
C636        C637   1.410       .  A
C636        C641   1.520       .  S
C637        C638   1.403       .  A
C637        H642   1.082       .  S
C638        C639   1.414       .  A
C639        C640   1.407       .  A
C639        C643   1.517       .  S
C640        H644   1.082   1_545  S
C641        F654   1.385       .  S
C641        F655   1.382       .  S
C641        F656   1.382       .  S
C643        F651   1.383       .  S
C643        F652   1.383       .  S
C643        F653   1.384   1_545  S
C657        C658   1.405       .  A
C657        C662   1.407       .  A
C657        H667   1.084       .  S
C658        C663   1.487   1_565  S
C658        C659   1.417       .  A
C659        C660   1.406       .  A
C659        C664   1.519   1_565  S
C660        C661   1.401       .  A
C660        H665   1.084       .  S
C661        C662   1.410       .  A
C662        C666   1.514       .  S
C663        C668   1.414       .  A
C663        C672   1.401       .  A
C664        F680   1.382       .  S
C664        F681   1.382       .  S
C664        F682   1.385       .  S
C666        F677   1.381       .  S
C666        F678   1.384       .  S
C666        F679   1.384       .  S
C668        C669   1.404       .  A
C668        C673   1.522       .  S
C669        C670   1.411       .  A
C669        H674   1.083       .  S
C670        C671   1.427       .  A
C671        C672   1.411       .  A
C671        C675   1.520       .  S
C672        H676   1.084       .  S
C673        F686   1.384       .  S
C673        F687   1.381   1_545  S
C673        F688   1.383       .  S
C675        F683   1.385       .  S
C675        F684   1.382       .  S
C675        F685   1.384       .  S
C689        C690   1.402       .  A
C689        C694   1.404       .  A
C689        H699   1.084       .  S
C690        C695   1.480       .  S
C690        C691   1.416       .  A
C691        C692   1.406       .  A
C691        C696   1.519       .  S
C692        C693   1.401       .  A
C692        H697   1.084       .  S
C693        C694   1.412       .  A
C694        C698   1.517       .  S
C695        C700   1.412       .  A
C695        C704   1.398       .  A
C696        F712   1.382       .  S
C696        F713   1.382       .  S
C696        F714   1.385       .  S
C698        F709   1.384       .  S
C698        F710   1.383       .  S
C698        F711   1.383       .  S
C700        C701   1.404       .  A
C700        C705   1.522       .  S
C701        C702   1.412       .  A
C701        H706   1.079       .  S
C702        C703   1.429       .  A
C703        C704   1.409       .  A
C703        C707   1.521       .  S
C704        H708   1.082       .  S
C705        F718   1.384       .  S
C705        F719   1.382       .  S
C705        F720   1.382       .  S
C707        F715   1.384       .  S
C707        F716   1.383       .  S
C707        F717   1.385       .  S
C721        C722   1.402       .  A
C721        C726   1.406       .  A
C721        H731   1.084       .  S
C722        C727   1.488       .  S
C722        C723   1.415       .  A
C723        C724   1.408       .  A
C723        C728   1.519       .  S
C724        C725   1.408       .  A
C724        H729   1.083       .  S
C725        C726   1.421       .  A
C726        C730   1.519       .  S
C727        C732   1.417       .  A
C727        C736   1.404       .  A
C728        F744   1.381       .  S
C728        F745   1.382       .  S
C728        F746   1.385       .  S
C730        F741   1.385       .  S
C730        F742   1.382       .  S
C730        F743   1.384       .  S
C732        C733   1.405       .  A
C732        C737   1.519       .  S
C733        C734   1.403       .  A
C733        H738   1.086       .  S
C734        C735   1.417       .  A
C735        C736   1.406       .  A
C735        C739   1.517       .  S
C736        H740   1.086       .  S
C737        F750   1.385       .  S
C737        F751   1.381       .  S
C737        F752   1.383       .  S
C739        F747   1.383       .  S
C739        F748   1.381       .  S
C739        F749   1.383       .  S
C753        C754   1.405       .  A
C753        C758   1.407       .  A
C753        H763   1.083       .  S
C754        C759   1.482       .  S
C754        C755   1.416       .  A
C755        C756   1.404       .  A
C755        C760   1.520       .  S
C756        C757   1.401       .  A
C756        H761   1.083       .  S
C757        C758   1.410       .  A
C758        C762   1.516       .  S
C759        C764   1.412       .  A
C759        C768   1.398       .  A
C760        F776   1.382       .  S
C760        F777   1.383       .  S
C760        F778   1.384       .  S
C762        F773   1.384       .  S
C762        F774   1.384       .  S
C762        F775   1.383       .  S
C764        C765   1.403       .  A
C764        C769   1.522       .  S
C765        C766   1.411       .  A
C765        H770   1.082       .  S
C766        C767   1.430       .  A
C767        C768   1.409       .  A
C767        C771   1.522       .  S
C768        H772   1.083       .  S
C769        F782   1.384       .  S
C769        F783   1.382       .  S
C769        F784   1.383       .  S
C771        F779   1.385       .  S
C771        F780   1.383       .  S
C771        F781   1.384       .  S
C785        C786   1.401       .  A
C785        C790   1.409       .  A
C785        H795   1.084       .  S
C786        C791   1.484       .  S
C786        C787   1.415       .  A
C787        C788   1.405       .  A
C787        C792   1.521       .  S
C788        C789   1.406       .  A
C788        H793   1.084       .  S
C789        C790   1.421       .  A
C790        C794   1.519       .  S
C791        C796   1.418       .  A
C791        C800   1.401       .  A
C792        F808   1.382       .  S
C792        F809   1.382       .  S
C792        F810   1.385       .  S
C794        F805   1.385       .  S
C794        F806   1.383       .  S
C794        F807   1.384       .  S
C796        C797   1.409       .  A
C796        C801   1.519       .  S
C797        C798   1.402       .  A
C797        H802   1.082       .  S
C798        C799   1.415       .  A
C799        C800   1.405       .  A
C799        C803   1.517       .  S
C800        H804   1.083       .  S
C801        F814   1.384       .  S
C801        F815   1.382       .  S
C801        F816   1.382       .  S
C803        F811   1.383       .  S
C803        F812   1.382       .  S
C803        F813   1.384       .  S
C817        C818   1.396       .  A
C817        C822   1.403       .  A
C817        H827   1.084       .  S
C818        C823   1.480   1_655  S
C818        C819   1.414       .  A
C819        C820   1.409       .  A
C819        C824   1.520       .  S
C820        C821   1.406       .  A
C820        H825   1.080       .  S
C821        C822   1.426       .  A
C822        C826   1.520       .  S
C823        C828   1.416       .  A
C823        C832   1.400       .  A
C824        F840   1.383       .  S
C824        F841   1.382       .  S
C824        F842   1.384       .  S
C826        F837   1.384       .  S
C826        F838   1.383       .  S
C826        F839   1.375       .  S
C828        C829   1.405       .  A
C828        C833   1.521       .  S
C829        C830   1.404       .  A
C829        H834   1.083       .  S
C830        C831   1.421       .  A
C831        C832   1.407       .  A
C831        C835   1.519       .  S
C832        H836   1.082   1_455  S
C833        F846   1.385       .  S
C833        F847   1.382       .  S
C833        F848   1.382       .  S
C835        F843   1.383       .  S
C835        F844   1.383       .  S
C835        F845   1.385       .  S
C849        C850   1.399       .  A
C849        C854   1.402       .  A
C849        H859   1.085   1_655  S
C850        C855   1.479   1_655  S
C850        C851   1.416       .  A
C851        C852   1.407       .  A
C851        C856   1.519       .  S
C852        C853   1.405       .  A
C852        H857   1.084       .  S
C853        C854   1.422       .  A
C854        C858   1.522       .  S
C855        C860   1.415       .  A
C855        C864   1.397       .  A
C856        F872   1.382       .  S
C856        F873   1.381       .  S
C856        F874   1.384       .  S
C858        F869   1.385   1_655  S
C858        F870   1.382       .  S
C858        F871   1.381       .  S
C860        C861   1.409       .  A
C860        C865   1.518       .  S
C861        C862   1.406       .  A
C861        H866   1.082       .  S
C862        C863   1.424       .  A
C863        C864   1.401       .  A
C863        C867   1.523       .  S
C864        H868   1.083   1_455  S
C865        F878   1.385       .  S
C865        F879   1.382       .  S
C865        F880   1.382       .  S
C867        F875   1.383       .  S
C867        F876   1.383       .  S
C867        F877   1.385   1_455  S
C881        C882   1.402       .  A
C881        C886   1.408       .  A
C881        H891   1.082       .  S
C882        C887   1.481       .  S
C882        C883   1.413       .  A
C883        C884   1.405       .  A
C883        C888   1.520       .  S
C884        C885   1.406       .  A
C884        H889   1.082       .  S
C885        C886   1.419       .  A
C886        C890   1.519       .  S
C887        C892   1.414       .  A
C887        C896   1.401       .  A
C888        F904   1.382       .  S
C888        F905   1.382       .  S
C888        F906   1.385       .  S
C890        F901   1.384       .  S
C890        F902   1.382       .  S
C890        F903   1.383       .  S
C892        C893   1.405       .  A
C892        C897   1.520       .  S
C893        C894   1.404       .  A
C893        H898   1.082       .  S
C894        C895   1.419       .  A
C895        C896   1.407       .  A
C895        C899   1.519       .  S
C896        H900   1.083       .  S
C897        F910   1.385       .  S
C897        F911   1.382       .  S
C897        F912   1.382       .  S
C899        F907   1.385       .  S
C899        F908   1.383       .  S
C899        F909   1.384       .  S
C913        C914   1.399       .  A
C913        C918   1.408       .  A
C913        H923   1.083       .  S
C914        C919   1.484       .  S
C914        C915   1.414       .  A
C915        C916   1.407       .  A
C915        C920   1.520       .  S
C916        C917   1.409       .  A
C916        H921   1.082       .  S
C917        C918   1.426       .  A
C918        C922   1.521       .  S
C919        C924   1.418       .  A
C919        C928   1.402       .  A
C920        F936   1.382       .  S
C920        F937   1.382       .  S
C920        F938   1.385       .  S
C922        F933   1.385       .  S
C922        F934   1.383       .  S
C922        F935   1.384       .  S
C924        C925   1.408       .  A
C924        C929   1.519       .  S
C925        C926   1.401       .  A
C925        H930   1.083       .  S
C926        C927   1.415       .  A
C927        C928   1.405       .  A
C927        C931   1.518       .  S
C928        H932   1.083       .  S
C929        F942   1.385       .  S
C929        F943   1.382       .  S
C929        F944   1.382       .  S
C931        F939   1.383       .  S
C931        F940   1.382       .  S
C931        F941   1.385       .  S
Fe945       O961   2.067       .  S
Fe945       O951   2.049       .  S
Fe945       O958   2.052       .  S
Fe945       O950   2.071       .  S
Fe945       O956   1.964       .  S
Fe946       O949   2.052       .  S
Fe946       O953   2.081       .  S
Fe946       O957   2.061       .  S
Fe946       O962   2.075       .  S
Fe946       O956   1.973       .  S
Fe947       O965   2.085       .  S
Fe947       O952   2.046       .  S
Fe947       O959   2.063       .  S
Fe947       O948   2.079       .  S
Fe947       O956   1.977       .  S
O948        C955   1.270       .  A
O949        C963   1.265       .  A
O950        C955   1.272       .  A
O951        C954   1.263       .  A
O952        C964   1.264       .  A
O953        C966   1.272       .  A
C954        O959   1.269       .  A
C954       C1806   1.483       .  S
C955       C1774   1.495       .  S
O957        C960   1.264       .  A
O958        C960   1.266       .  A
C960       C1701   1.479       .  S
O961        C966   1.272       .  A
O962        C964   1.273       .  A
C963        O965   1.272       .  A
C963       C1870   1.492       .  S
C964       C1838   1.490       .  S
C966       C1733   1.487       .  S
Fe967       O983   2.065       .  S
Fe967       O973   2.058       .  S
Fe968       O979   2.067       .  S
Fe968       O984   2.082       .  S
Fe968       O978   1.984       .  S
Fe969       O974   2.061       .  S
Fe969       O970   2.070       .  S
Fe969       O978   1.984       .  S
O970        C977   1.268       .  A
O971        C985   1.267       .  A
O972        C977   1.269       .  A
O973        C976   1.266       .  A
O974        C986   1.272       .  A
O975        C988   1.269       .  A
C976        O981   1.271       .  A
C976       C1637   1.488       .  S
C977       C1678   1.475       .  S
O979        C982   1.267       .  A
O980        C982   1.264       .  A
C982       C1605   1.478       .  S
O983        C988   1.272       .  A
O984        C986   1.273       .  A
C985        O987   1.270       .  A
C985       C1829   1.472       .  S
C986       C1861   1.485       .  S
C988       C1573   1.493       .  S
Fe989      O1005   2.068   1_554  S
Fe989       O995   2.041   1_554  S
Fe990      O1001   2.081       .  S
Fe990      O1006   2.074       .  S
Fe990      O1000   1.984       .  S
Fe991       O996   2.060       .  S
Fe991       O992   2.083       .  S
Fe991      O1000   1.982       .  S
O992        C999   1.273       .  A
O993       C1007   1.267       .  A
O994        C999   1.271       .  A
O995        C998   1.265       .  A
O996       C1008   1.266       .  A
O997       C1010   1.270       .  A
C998       O1003   1.273       .  A
C998       C1797   1.474       .  S
C999       C1765   1.482       .  S
O1001      C1004   1.269       .  A
O1002      C1004   1.267       .  A
C1004      C1445   1.497       .  S
O1005      C1010   1.267       .  A
O1006      C1008   1.272       .  A
C1007      O1009   1.269       .  A
C1007      C1518   1.493       .  S
C1008      C1550   1.491       .  S
C1010      C1477   1.486       .  S
Fe1011     O1027   2.053       .  S
Fe1011     O1017   2.070       .  S
Fe1011     O1024   2.058       .  S
Fe1011     O1016   2.066       .  S
Fe1011     O1022   1.977       .  S
Fe1012     O1015   2.061       .  S
Fe1012     O1019   2.072       .  S
Fe1012     O1023   2.063       .  S
Fe1012     O1028   2.071       .  S
Fe1012     O1022   1.987       .  S
Fe1013     O1031   2.068       .  S
Fe1013     O1018   2.074       .  S
Fe1013     O1025   2.078       .  S
Fe1013     O1014   2.072       .  S
Fe1013     O1022   1.982       .  S
O1014      C1021   1.270       .  A
O1015      C1029   1.269       .  A
O1016      C1021   1.268       .  A
O1017      C1020   1.268       .  A
O1018      C1030   1.269       .  A
O1019      C1032   1.269       .  A
C1020      O1025   1.268       .  A
C1020      C1646   1.490       .  S
C1021      C1669   1.484       .  S
O1023      C1026   1.268       .  A
O1024      C1026   1.267       .  A
C1026      C1413   1.470       .  S
O1027      C1032   1.266       .  A
O1028      C1030   1.269       .  A
C1029      O1031   1.269       .  A
C1029      C1541   1.480       .  S
C1030      C1509   1.486       .  S
C1032      C1381   1.482       .  S
Fe1033     O1049   2.055       .  S
Fe1033     O1039   2.065       .  S
Fe1034     O1037   2.053   1_554  S
Fe1034     O1041   2.086   1_554  S
Fe1035     O1040   2.062       .  S
Fe1035     O1036   2.074       .  S
Fe1035     O1044   1.980       .  S
O1036      C1043   1.270       .  A
O1037      C1051   1.267       .  A
O1038      C1043   1.267       .  A
O1039      C1042   1.267       .  A
O1040      C1052   1.267       .  A
O1041      C1054   1.271       .  A
C1042      O1047   1.269       .  A
C1042      C1285   1.477       .  S
C1043      C1253   1.475       .  S
O1045      C1048   1.268       .  A
O1046      C1048   1.267       .  A
C1048      C1710   1.485       .  S
O1049      C1054   1.269       .  A
O1050      C1052   1.270       .  A
C1051      O1053   1.273       .  A
C1051      C1358   1.474       .  S
C1052      C1326   1.488       .  S
C1054      C1742   1.487       .  S
Fe1055     O1071   2.046       .  S
Fe1055     O1061   2.040       .  S
Fe1055     O1068   2.037       .  S
Fe1055     O1060   2.042       .  S
Fe1055     O1066   1.964       .  S
Fe1056     O1059   2.072       .  S
Fe1056     O1063   2.066       .  S
Fe1056     O1067   2.092       .  S
Fe1056     O1072   2.062       .  S
Fe1056     O1066   1.981       .  S
Fe1057     O1075   2.059       .  S
Fe1057     O1062   2.062       .  S
Fe1057     O1069   2.067       .  S
Fe1057     O1058   2.076       .  S
Fe1057     O1066   1.984       .  S
O1058      C1065   1.271       .  A
O1059      C1073   1.271       .  A
O1060      C1065   1.262       .  A
O1061      C1064   1.265       .  A
O1062      C1074   1.268       .  A
O1063      C1076   1.265       .  A
C1064      O1069   1.266       .  A
C1064      C1614   1.477       .  S
C1065      C1582   1.485       .  S
O1067      C1070   1.276       .  A
O1068      C1070   1.264       .  A
C1070      C1189   1.487       .  S
O1071      C1076   1.262       .  A
O1072      C1074   1.266       .  A
C1073      O1075   1.270       .  A
C1073      C1349   1.479       .  S
C1074      C1317   1.489       .  S
C1076      C1230   1.468       .  S
Fe1077     O1093   2.061       .  S
Fe1077     O1083   2.041       .  S
Fe1078     O1089   2.070       .  S
Fe1078     O1094   2.063       .  S
Fe1078     O1088   1.976       .  S
Fe1079     O1084   2.073       .  S
Fe1079     O1080   2.055       .  S
Fe1079     O1088   1.976       .  S
O1080      C1087   1.268       .  A
O1081      C1095   1.267       .  A
O1082      C1087   1.272       .  A
O1083      C1086   1.263       .  A
O1084      C1096   1.270       .  A
O1085      C1098   1.268       .  A
C1086      O1091   1.271       .  A
C1086      C1422   1.485       .  S
C1087      C1390   1.467       .  S
O1089      C1092   1.271       .  A
O1090      C1092   1.266       .  A
C1092      C1198   1.479       .  S
O1093      C1098   1.268       .  A
O1094      C1096   1.265       .  A
C1095      O1097   1.272       .  A
C1095      C1157   1.486       .  S
C1096      C1125   1.497       .  S
C1098      C1221   1.483       .  S
Fe1099     O1115   2.052       .  S
Fe1099     O1105   2.067       .  S
Fe1099     O1112   2.068       .  S
Fe1099     O1104   2.055       .  S
Fe1099     O1110   1.968       .  S
Fe1100     O1103   2.063       .  S
Fe1100     O1107   2.097       .  S
Fe1100     O1111   2.068       .  S
Fe1100     O1116   2.090       .  S
Fe1100     O1110   1.975       .  S
Fe1101     O1119   2.069       .  S
Fe1101     O1106   2.056       .  S
Fe1101     O1113   2.058       .  S
Fe1101     O1102   2.076       .  S
Fe1101     O1110   1.975       .  S
O1102      C1109   1.271       .  A
O1103      C1117   1.271       .  A
O1104      C1109   1.267       .  A
O1105      C1108   1.269       .  A
O1106      C1118   1.266       .  A
O1107      C1120   1.274       .  A
C1108      O1113   1.265       .  A
C1108      C1294   1.482       .  S
C1109      C1262   1.484       .  S
O1111      C1114   1.268       .  A
O1112      C1114   1.270       .  A
C1114      C1454   1.487       .  S
O1115      C1120   1.266       .  A
O1116      C1118   1.274       .  A
C1117      O1119   1.269       .  A
C1117      C1166   1.482       .  S
C1118      C1134   1.490       .  S
C1120      C1486   1.478       .  S
C1121      C1122   1.403       .  A
C1121      C1126   1.412       .  A
C1121      H1131   1.082       .  S
C1122      C1127   1.492       .  S
C1122      C1123   1.415       .  A
C1123      C1124   1.407       .  A
C1123      C1128   1.520       .  S
C1124      C1125   1.409       .  A
C1124      H1129   1.081       .  S
C1125      C1126   1.425       .  A
C1126      C1130   1.520       .  S
C1127      C1132   1.418       .  A
C1127      C1136   1.400       .  A
C1128      F1144   1.382       .  S
C1128      F1145   1.382       .  S
C1128      F1146   1.385       .  S
C1130      F1141   1.383       .  S
C1130      F1142   1.385       .  S
C1130      F1143   1.383       .  S
C1132      C1133   1.411       .  A
C1132      C1137   1.519       .  S
C1133      C1134   1.405       .  A
C1133      H1138   1.084       .  S
C1134      C1135   1.424       .  A
C1135      C1136   1.408       .  A
C1135      C1139   1.521       .  S
C1136      H1140   1.083       .  S
C1137      F1150   1.385       .  S
C1137      F1151   1.382       .  S
C1137      F1152   1.383       .  S
C1139      F1147   1.385       .  S
C1139      F1148   1.383       .  S
C1139      F1149   1.383       .  S
C1153      C1154   1.398       .  A
C1153      C1158   1.406       .  A
C1153      H1163   1.083       .  S
C1154      C1159   1.484       .  S
C1154      C1155   1.415       .  A
C1155      C1156   1.409       .  A
C1155      C1160   1.518       .  S
C1156      C1157   1.405       .  A
C1156      H1161   1.083       .  S
C1157      C1158   1.424       .  A
C1158      C1162   1.521       .  S
C1159      C1164   1.415       .  A
C1159      C1168   1.402       .  A
C1160      F1176   1.382       .  S
C1160      F1177   1.382       .  S
C1160      F1178   1.385       .  S
C1162      F1173   1.382       .  S
C1162      F1174   1.385       .  S
C1162      F1175   1.383       .  S
C1164      C1165   1.405       .  A
C1164      C1169   1.520       .  S
C1165      C1166   1.404       .  A
C1165      H1170   1.083       .  S
C1166      C1167   1.420       .  A
C1167      C1168   1.409       .  A
C1167      C1171   1.520       .  S
C1168      H1172   1.083       .  S
C1169      F1182   1.385       .  S
C1169      F1183   1.382       .  S
C1169      F1184   1.382       .  S
C1171      F1179   1.385       .  S
C1171      F1180   1.384       .  S
C1171      F1181   1.382       .  S
C1185      C1186   1.395       .  A
C1185      C1190   1.402       .  A
C1185      H1195   1.083       .  S
C1186      C1191   1.482       .  S
C1186      C1187   1.415       .  A
C1187      C1188   1.410       .  A
C1187      C1192   1.518       .  S
C1188      C1189   1.406       .  A
C1188      H1193   1.082       .  S
C1189      C1190   1.429       .  A
C1190      C1194   1.525       .  S
C1191      C1196   1.416       .  A
C1191      C1200   1.399       .  A
C1192      F1208   1.382       .  S
C1192      F1209   1.382       .  S
C1192      F1210   1.384       .  S
C1194      F1205   1.385       .  S
C1194      F1206   1.383       .  S
C1194      F1207   1.383       .  S
C1196      C1197   1.406       .  A
C1196      C1201   1.519       .  S
C1197      C1198   1.404       .  A
C1197      H1202   1.085       .  S
C1198      C1199   1.422       .  A
C1199      C1200   1.404       .  A
C1199      C1203   1.522       .  S
C1200      H1204   1.085       .  S
C1201      F1214   1.385       .  S
C1201      F1215   1.382       .  S
C1201      F1216   1.382       .  S
C1203      F1211   1.382       .  S
C1203      F1212   1.382       .  S
C1203      F1213   1.385       .  S
C1217      C1218   1.400       .  A
C1217      C1222   1.408       .  A
C1217      H1227   1.082       .  S
C1218      C1223   1.480       .  S
C1218      C1219   1.415       .  A
C1219      C1220   1.404       .  A
C1219      C1224   1.521       .  S
C1220      C1221   1.405       .  A
C1220      H1225   1.082       .  S
C1221      C1222   1.422       .  A
C1222      C1226   1.519       .  S
C1223      C1228   1.415       .  A
C1223      C1232   1.399       .  A
C1224      F1240   1.382       .  S
C1224      F1241   1.382       .  S
C1224      F1242   1.385       .  S
C1226      F1237   1.385       .  S
C1226      F1238   1.382       .  S
C1226      F1239   1.383       .  S
C1228      C1229   1.405       .  A
C1228      C1233   1.519       .  S
C1229      C1230   1.403       .  A
C1229      H1234   1.084       .  S
C1230      C1231   1.421       .  A
C1231      C1232   1.403       .  A
C1231      C1235   1.520       .  S
C1232      H1236   1.086       .  S
C1233      F1246   1.385       .  S
C1233      F1247   1.382       .  S
C1233      F1248   1.382       .  S
C1235      F1243   1.383       .  S
C1235      F1244   1.379       .  S
C1235      F1245   1.384       .  S
C1249      C1250   1.402       .  A
C1249      C1254   1.406       .  A
C1249      H1259   1.084       .  S
C1250      C1255   1.483   1_455  S
C1250      C1251   1.417       .  A
C1251      C1252   1.408       .  A
C1251      C1256   1.520   1_455  S
C1252      C1253   1.403       .  A
C1252      H1257   1.085       .  S
C1253      C1254   1.415       .  A
C1254      C1258   1.518       .  S
C1255      C1260   1.415       .  A
C1255      C1264   1.401       .  A
C1256      F1272   1.382       .  S
C1256      F1273   1.381       .  S
C1256      F1274   1.385       .  S
C1258      F1269   1.385       .  S
C1258      F1270   1.382       .  S
C1258      F1271   1.383       .  S
C1260      C1261   1.407       .  A
C1260      C1265   1.519   1_655  S
C1261      C1262   1.406       .  A
C1261      H1266   1.083       .  S
C1262      C1263   1.421       .  A
C1263      C1264   1.406       .  A
C1263      C1267   1.520       .  S
C1264      H1268   1.084       .  S
C1265      F1278   1.385   1_455  S
C1265      F1279   1.382       .  S
C1265      F1280   1.381       .  S
C1267      F1275   1.383       .  S
C1267      F1276   1.382       .  S
C1267      F1277   1.385       .  S
C1281      C1282   1.401       .  A
C1281      C1286   1.404       .  A
C1281      H1291   1.084       .  S
C1282      C1287   1.484   1_455  S
C1282      C1283   1.416       .  A
C1283      C1284   1.410       .  A
C1283      C1288   1.518   1_455  S
C1284      C1285   1.404       .  A
C1284      H1289   1.084       .  S
C1285      C1286   1.414       .  A
C1286      C1290   1.513       .  S
C1287      C1292   1.417       .  A
C1287      C1296   1.401       .  A
C1288      F1304   1.382       .  S
C1288      F1305   1.382       .  S
C1288      F1306   1.384       .  S
C1290      F1301   1.384       .  S
C1290      F1302   1.382       .  S
C1290      F1303   1.381       .  S
C1292      C1293   1.405       .  A
C1292      C1297   1.521       .  S
C1293      C1294   1.404       .  A
C1293      H1298   1.083       .  S
C1294      C1295   1.421       .  A
C1295      C1296   1.407       .  A
C1295      C1299   1.519       .  S
C1296      H1300   1.083       .  S
C1297      F1310   1.385       .  S
C1297      F1311   1.382       .  S
C1297      F1312   1.382       .  S
C1299      F1307   1.384       .  S
C1299      F1308   1.383       .  S
C1299      F1309   1.383       .  S
C1313      C1314   1.402       .  A
C1313      C1318   1.408       .  A
C1313      H1323   1.083       .  S
C1314      C1319   1.484       .  S
C1314      C1315   1.414       .  A
C1315      C1316   1.406       .  A
C1315      C1320   1.521       .  S
C1316      C1317   1.409       .  A
C1316      H1321   1.083       .  S
C1317      C1318   1.422       .  A
C1318      C1322   1.520       .  S
C1319      C1324   1.415       .  A
C1319      C1328   1.398       .  A
C1320      F1336   1.382       .  S
C1320      F1337   1.382       .  S
C1320      F1338   1.385       .  S
C1322      F1333   1.383       .  S
C1322      F1334   1.384       .  S
C1322      F1335   1.384       .  S
C1324      C1325   1.410       .  A
C1324      C1329   1.520       .  S
C1325      C1326   1.407       .  A
C1325      H1330   1.080       .  S
C1326      C1327   1.424       .  A
C1327      C1328   1.405       .  A
C1327      C1331   1.521       .  S
C1328      H1332   1.083       .  S
C1329      F1342   1.384       .  S
C1329      F1343   1.382       .  S
C1329      F1344   1.382       .  S
C1331      F1339   1.385       .  S
C1331      F1340   1.383       .  S
C1331      F1341   1.383       .  S
C1345      C1346   1.401       .  A
C1345      C1350   1.406       .  A
C1345      H1355   1.082       .  S
C1346      C1351   1.480       .  S
C1346      C1347   1.415       .  A
C1347      C1348   1.405       .  A
C1347      C1352   1.520       .  S
C1348      C1349   1.405       .  A
C1348      H1353   1.082       .  S
C1349      C1350   1.419       .  A
C1350      C1354   1.520       .  S
C1351      C1356   1.415       .  A
C1351      C1360   1.403       .  A
C1352      F1368   1.382       .  S
C1352      F1369   1.383       .  S
C1352      F1370   1.385       .  S
C1354      F1365   1.385       .  S
C1354      F1366   1.381       .  S
C1354      F1367   1.384       .  S
C1356      C1357   1.403       .  A
C1356      C1361   1.520       .  S
C1357      C1358   1.402       .  A
C1357      H1362   1.083       .  S
C1358      C1359   1.417       .  A
C1359      C1360   1.407       .  A
C1359      C1363   1.519       .  S
C1360      H1364   1.083       .  S
C1361      F1374   1.385       .  S
C1361      F1375   1.382       .  S
C1361      F1376   1.382       .  S
C1363      F1371   1.385       .  S
C1363      F1372   1.383       .  S
C1363      F1373   1.382       .  S
C1377      C1378   1.398       .  A
C1377      C1382   1.400       .  A
C1377      H1387   1.083       .  S
C1378      C1383   1.481   1_565  S
C1378      C1379   1.416       .  A
C1379      C1380   1.410       .  A
C1379      C1384   1.519       .  S
C1380      C1381   1.407       .  A
C1380      H1385   1.082       .  S
C1381      C1382   1.417       .  A
C1382      C1386   1.515       .  S
C1383      C1388   1.417   1_545  A
C1383      C1392   1.404       .  A
C1384      F1400   1.382   1_565  S
C1384      F1401   1.382       .  S
C1384      F1402   1.385       .  S
C1386      F1397   1.383       .  S
C1386      F1398   1.384       .  S
C1386      F1399   1.383       .  S
C1388      C1389   1.406   1_565  A
C1388      C1393   1.520       .  S
C1389      C1390   1.401       .  A
C1389      H1394   1.084       .  S
C1390      C1391   1.411       .  A
C1391      C1392   1.405       .  A
C1391      C1395   1.517       .  S
C1392      H1396   1.084       .  S
C1393      F1406   1.384       .  S
C1393      F1407   1.382       .  S
C1393      F1408   1.382       .  S
C1395      F1403   1.384       .  S
C1395      F1404   1.383       .  S
C1395      F1405   1.383       .  S
C1409      C1410   1.399       .  A
C1409      C1414   1.401       .  A
C1409      H1419   1.083   1_565  S
C1410      C1415   1.477   1_565  S
C1410      C1411   1.416       .  A
C1411      C1412   1.406       .  A
C1411      C1416   1.518       .  S
C1412      C1413   1.401       .  A
C1412      H1417   1.084       .  S
C1413      C1414   1.417       .  A
C1414      C1418   1.520       .  S
C1415      C1420   1.414       .  A
C1415      C1424   1.396       .  A
C1416      F1432   1.382       .  S
C1416      F1433   1.382       .  S
C1416      F1434   1.385       .  S
C1418      F1429   1.383       .  S
C1418      F1430   1.385   1_565  S
C1418      F1431   1.382       .  S
C1420      C1421   1.407       .  A
C1420      C1425   1.519       .  S
C1421      C1422   1.408       .  A
C1421      H1426   1.082       .  S
C1422      C1423   1.426       .  A
C1423      C1424   1.401       .  A
C1423      C1427   1.524       .  S
C1424      H1428   1.083   1_545  S
C1425      F1438   1.384       .  S
C1425      F1439   1.382       .  S
C1425      F1440   1.382       .  S
C1427      F1435   1.383       .  S
C1427      F1436   1.384       .  S
C1427      F1437   1.385   1_545  S
C1441      C1442   1.402       .  A
C1441      C1446   1.412       .  A
C1441      H1451   1.084       .  S
C1442      C1447   1.487       .  S
C1442      C1443   1.413       .  A
C1443      C1444   1.404       .  A
C1443      C1448   1.522       .  S
C1444      C1445   1.410       .  A
C1444      H1449   1.083       .  S
C1445      C1446   1.424       .  A
C1446      C1450   1.519       .  S
C1447      C1452   1.414       .  A
C1447      C1456   1.404       .  A
C1448      F1464   1.382       .  S
C1448      F1465   1.383       .  S
C1448      F1466   1.385       .  S
C1450      F1461   1.383       .  S
C1450      F1462   1.385       .  S
C1450      F1463   1.383       .  S
C1452      C1453   1.404       .  A
C1452      C1457   1.520       .  S
C1453      C1454   1.406       .  A
C1453      H1458   1.084       .  S
C1454      C1455   1.421       .  A
C1455      C1456   1.411       .  A
C1455      C1459   1.520       .  S
C1456      H1460   1.083       .  S
C1457      F1470   1.385       .  S
C1457      F1471   1.382       .  S
C1457      F1472   1.382       .  S
C1459      F1467   1.385       .  S
C1459      F1468   1.382       .  S
C1459      F1469   1.382       .  S
C1473      C1474   1.403       .  A
C1473      C1478   1.408       .  A
C1473      H1483   1.083       .  S
C1474      C1479   1.492       .  S
C1474      C1475   1.416       .  A
C1475      C1476   1.409       .  A
C1475      C1480   1.518       .  S
C1476      C1477   1.405       .  A
C1476      H1481   1.083       .  S
C1477      C1478   1.421       .  A
C1478      C1482   1.520       .  S
C1479      C1484   1.418       .  A
C1479      C1488   1.406       .  A
C1480      F1496   1.382       .  S
C1480      F1497   1.382       .  S
C1480      F1498   1.385       .  S
C1482      F1493   1.384       .  S
C1482      F1494   1.385       .  S
C1482      F1495   1.382       .  S
C1484      C1485   1.408       .  A
C1484      C1489   1.520       .  S
C1485      C1486   1.402       .  A
C1485      H1490   1.083       .  S
C1486      C1487   1.414       .  A
C1487      C1488   1.411       .  A
C1487      C1491   1.517       .  S
C1488      H1492   1.082       .  S
C1489      F1502   1.384       .  S
C1489      F1503   1.382       .  S
C1489      F1504   1.383       .  S
C1491      F1499   1.384       .  S
C1491      F1500   1.383       .  S
C1491      F1501   1.384       .  S
C1505      C1506   1.404       .  A
C1505      C1510   1.410       .  A
C1505      H1515   1.083       .  S
C1506      C1511   1.491       .  S
C1506      C1507   1.417       .  A
C1507      C1508   1.410       .  A
C1507      C1512   1.520       .  S
C1508      C1509   1.405       .  A
C1508      H1513   1.083       .  S
C1509      C1510   1.418       .  A
C1510      C1514   1.517       .  S
C1511      C1516   1.415       .  A
C1511      C1520   1.403       .  A
C1512      F1528   1.382       .  S
C1512      F1529   1.382       .  S
C1512      F1530   1.385       .  S
C1514      F1525   1.385       .  S
C1514      F1526   1.382       .  S
C1514      F1527   1.383       .  S
C1516      C1517   1.408       .  A
C1516      C1521   1.520       .  S
C1517      C1518   1.408       .  A
C1517      H1522   1.082       .  S
C1518      C1519   1.422       .  A
C1519      C1520   1.411       .  A
C1519      C1523   1.519       .  S
C1520      H1524   1.082       .  S
C1521      F1534   1.385       .  S
C1521      F1535   1.382       .  S
C1521      F1536   1.381       .  S
C1523      F1531   1.383       .  S
C1523      F1532   1.383       .  S
C1523      F1533   1.384       .  S
C1537      C1538   1.403       .  A
C1537      C1542   1.409       .  A
C1537      H1547   1.083       .  S
C1538      C1543   1.484       .  S
C1538      C1539   1.415       .  A
C1539      C1540   1.405       .  A
C1539      C1544   1.520       .  S
C1540      C1541   1.405       .  A
C1540      H1545   1.083       .  S
C1541      C1542   1.419       .  A
C1542      C1546   1.520       .  S
C1543      C1548   1.414       .  A
C1543      C1552   1.398       .  A
C1544      F1560   1.382       .  S
C1544      F1561   1.382       .  S
C1544      F1562   1.385       .  S
C1546      F1557   1.382       .  S
C1546      F1558   1.385       .  S
C1546      F1559   1.384       .  S
C1548      C1549   1.407       .  A
C1548      C1553   1.519       .  S
C1549      C1550   1.407       .  A
C1549      H1554   1.082       .  S
C1550      C1551   1.428       .  A
C1551      C1552   1.408       .  A
C1551      C1555   1.523       .  S
C1552      H1556   1.083       .  S
C1553      F1566   1.384       .  S
C1553      F1567   1.382       .  S
C1553      F1568   1.382       .  S
C1555      F1563   1.385       .  S
C1555      F1564   1.384       .  S
C1555      F1565   1.383       .  S
C1569      C1570   1.400       .  A
C1569      C1574   1.409       .  A
C1569      H1579   1.084       .  S
C1570      C1575   1.478   1_565  S
C1570      C1571   1.412       .  A
C1571      C1572   1.402       .  A
C1571      C1576   1.523   1_565  S
C1572      C1573   1.411       .  A
C1572      H1577   1.083       .  S
C1573      C1574   1.425       .  A
C1574      C1578   1.520       .  S
C1575      C1580   1.413       .  A
C1575      C1584   1.397       .  A
C1576      F1592   1.382       .  S
C1576      F1593   1.381       .  S
C1576      F1594   1.385       .  S
C1578      F1589   1.385       .  S
C1578      F1590   1.383       .  S
C1578      F1591   1.383       .  S
C1580      C1581   1.408       .  A
C1580      C1585   1.519       .  S
C1581      C1582   1.407       .  A
C1581      H1586   1.082       .  S
C1582      C1583   1.427       .  A
C1583      C1584   1.402       .  A
C1583      C1587   1.524       .  S
C1584      H1588   1.083   1_545  S
C1585      F1598   1.385       .  S
C1585      F1599   1.382       .  S
C1585      F1600   1.381       .  S
C1587      F1595   1.383       .  S
C1587      F1596   1.383       .  S
C1587      F1597   1.385   1_545  S
C1601      C1602   1.398       .  A
C1601      C1606   1.400       .  A
C1601      H1611   1.084       .  S
C1602      C1607   1.474   1_565  S
C1602      C1603   1.412       .  A
C1603      C1604   1.406       .  A
C1603      C1608   1.519   1_565  S
C1604      C1605   1.406       .  A
C1604      H1609   1.081       .  S
C1605      C1606   1.416       .  A
C1606      C1610   1.513       .  S
C1607      C1612   1.414       .  A
C1607      C1616   1.400       .  A
C1608      F1624   1.382       .  S
C1608      F1625   1.382       .  S
C1608      F1626   1.384       .  S
C1610      F1621   1.383       .  S
C1610      F1622   1.385       .  S
C1610      F1623   1.380       .  S
C1612      C1613   1.400       .  A
C1612      C1617   1.521       .  S
C1613      C1614   1.405       .  A
C1613      H1618   1.085       .  S
C1614      C1615   1.420       .  A
C1615      C1616   1.405       .  A
C1615      C1619   1.520       .  S
C1616      H1620   1.084       .  S
C1617      F1630   1.385       .  S
C1617      F1631   1.382       .  S
C1617      F1632   1.382       .  S
C1619      F1627   1.385       .  S
C1619      F1628   1.383       .  S
C1619      F1629   1.383       .  S
C1633      C1634   1.401       .  A
C1633      C1638   1.406       .  A
C1633      H1643   1.084       .  S
C1634      C1639   1.488       .  S
C1634      C1635   1.415       .  A
C1635      C1636   1.412       .  A
C1635      C1640   1.519       .  S
C1636      C1637   1.408       .  A
C1636      H1641   1.083       .  S
C1637      C1638   1.420       .  A
C1638      C1642   1.519       .  S
C1639      C1644   1.416       .  A
C1639      C1648   1.402       .  A
C1640      F1656   1.382       .  S
C1640      F1657   1.381       .  S
C1640      F1658   1.385       .  S
C1642      F1653   1.385       .  S
C1642      F1654   1.382       .  S
C1642      F1655   1.382       .  S
C1644      C1645   1.408       .  A
C1644      C1649   1.521       .  S
C1645      C1646   1.404       .  A
C1645      H1650   1.087       .  S
C1646      C1647   1.421       .  A
C1647      C1648   1.411       .  A
C1647      C1651   1.518       .  S
C1648      H1652   1.085       .  S
C1649      F1662   1.382       .  S
C1649      F1663   1.382       .  S
C1649      F1664   1.381       .  S
C1651      F1659   1.383       .  S
C1651      F1660   1.382       .  S
C1651      F1661   1.384       .  S
C1665      C1666   1.402       .  A
C1665      C1670   1.407       .  A
C1665      H1675   1.084       .  S
C1666      C1671   1.486       .  S
C1666      C1667   1.416       .  A
C1667      C1668   1.408       .  A
C1667      C1672   1.519       .  S
C1668      C1669   1.406       .  A
C1668      H1673   1.083       .  S
C1669      C1670   1.419       .  A
C1670      C1674   1.520       .  S
C1671      C1676   1.416       .  A
C1671      C1680   1.402       .  A
C1672      F1688   1.382       .  S
C1672      F1689   1.382       .  S
C1672      F1690   1.385       .  S
C1674      F1685   1.385       .  S
C1674      F1686   1.382       .  S
C1674      F1687   1.383       .  S
C1676      C1677   1.408       .  A
C1676      C1681   1.518       .  S
C1677      C1678   1.404       .  A
C1677      H1682   1.084       .  S
C1678      C1679   1.416       .  A
C1679      C1680   1.404       .  A
C1679      C1683   1.513       .  S
C1680      H1684   1.085       .  S
C1681      F1694   1.385       .  S
C1681      F1695   1.382       .  S
C1681      F1696   1.382       .  S
C1683      F1691   1.382       .  S
C1683      F1692   1.382       .  S
C1683      F1693   1.383       .  S
C1697      C1698   1.402       .  A
C1697      C1702   1.408       .  A
C1697      H1707   1.085       .  S
C1698      C1703   1.479       .  S
C1698      C1699   1.413       .  A
C1699      C1700   1.401       .  A
C1699      C1704   1.521       .  S
C1700      C1701   1.406       .  A
C1700      H1705   1.085       .  S
C1701      C1702   1.419       .  A
C1702      C1706   1.519       .  S
C1703      C1708   1.413       .  A
C1703      C1712   1.401       .  A
C1704      F1720   1.382       .  S
C1704      F1721   1.383       .  S
C1704      F1722   1.385       .  S
C1706      F1717   1.384       .  S
C1706      F1718   1.385       .  S
C1706      F1719   1.382       .  S
C1708      C1709   1.401       .  A
C1708      C1713   1.522       .  S
C1709      C1710   1.407       .  A
C1709      H1714   1.082       .  S
C1710      C1711   1.421       .  A
C1711      C1712   1.408       .  A
C1711      C1715   1.518       .  S
C1712      H1716   1.082       .  S
C1713      F1726   1.384       .  S
C1713      F1727   1.382       .  S
C1713      F1728   1.383       .  S
C1715      F1723   1.384       .  S
C1715      F1724   1.382       .  S
C1715      F1725   1.383       .  S
C1729      C1730   1.401       .  A
C1729      C1734   1.410       .  A
C1729      H1739   1.084       .  S
C1730      C1735   1.485       .  S
C1730      C1731   1.415       .  A
C1731      C1732   1.407       .  A
C1731      C1736   1.520       .  S
C1732      C1733   1.405       .  A
C1732      H1737   1.084       .  S
C1733      C1734   1.422       .  A
C1734      C1738   1.519       .  S
C1735      C1740   1.414       .  A
C1735      C1744   1.402       .  A
C1736      F1752   1.383       .  S
C1736      F1753   1.382       .  S
C1736      F1754   1.384       .  S
C1738      F1749   1.385       .  S
C1738      F1750   1.383       .  S
C1738      F1751   1.383       .  S
C1740      C1741   1.404       .  A
C1740      C1745   1.521       .  S
C1741      C1742   1.404       .  A
C1741      H1746   1.083       .  S
C1742      C1743   1.423       .  A
C1743      C1744   1.411       .  A
C1743      C1747   1.520       .  S
C1744      H1748   1.084       .  S
C1745      F1758   1.384       .  S
C1745      F1759   1.382       .  S
C1745      F1760   1.382       .  S
C1747      F1755   1.383       .  S
C1747      F1756   1.383       .  S
C1747      F1757   1.385       .  S
C1761      C1762   1.401       .  A
C1761      C1766   1.409       .  A
C1761      H1771   1.085   1_655  S
C1762      C1767   1.491   1_655  S
C1762      C1763   1.415       .  A
C1763      C1764   1.409       .  A
C1763      C1768   1.519       .  S
C1764      C1765   1.405       .  A
C1764      H1769   1.084       .  S
C1765      C1766   1.425       .  A
C1766      C1770   1.520       .  S
C1767      C1772   1.416       .  A
C1767      C1776   1.401       .  A
C1768      F1784   1.383       .  S
C1768      F1785   1.382       .  S
C1768      F1786   1.384       .  S
C1770      F1781   1.384       .  S
C1770      F1782   1.383       .  S
C1770      F1783   1.379       .  S
C1772      C1773   1.409       .  A
C1772      C1777   1.520       .  S
C1773      C1774   1.407       .  A
C1773      H1778   1.082       .  S
C1774      C1775   1.426       .  A
C1775      C1776   1.411       .  A
C1775      C1779   1.521       .  S
C1776      H1780   1.082   1_455  S
C1777      F1790   1.385       .  S
C1777      F1791   1.382       .  S
C1777      F1792   1.382       .  S
C1779      F1787   1.383       .  S
C1779      F1788   1.382       .  S
C1779      F1789   1.385       .  S
C1793      C1794   1.398       .  A
C1793      C1798   1.400       .  A
C1793      H1803   1.083   1_655  S
C1794      C1799   1.475   1_655  S
C1794      C1795   1.415       .  A
C1795      C1796   1.405       .  A
C1795      C1800   1.519       .  S
C1796      C1797   1.403       .  A
C1796      H1801   1.083       .  S
C1797      C1798   1.421       .  A
C1798      C1802   1.522       .  S
C1799      C1804   1.413       .  A
C1799      C1808   1.397       .  A
C1800      F1816   1.382       .  S
C1800      F1817   1.382       .  S
C1800      F1818   1.385       .  S
C1802      F1813   1.385   1_655  S
C1802      F1814   1.382       .  S
C1802      F1815   1.382   1_556  S
C1804      C1805   1.406       .  A
C1804      C1809   1.519       .  S
C1805      C1806   1.407       .  A
C1805      H1810   1.083       .  S
C1806      C1807   1.427       .  A
C1807      C1808   1.401       .  A
C1807      C1811   1.524       .  S
C1808      H1812   1.083   1_455  S
C1809      F1822   1.385       .  S
C1809      F1823   1.382       .  S
C1809      F1824   1.382       .  S
C1811      F1819   1.383       .  S
C1811      F1820   1.382       .  S
C1811      F1821   1.385   1_455  S
C1825      C1826   1.402       .  A
C1825      C1830   1.402       .  A
C1825      H1835   1.083       .  S
C1826      C1831   1.477       .  S
C1826      C1827   1.414       .  A
C1827      C1828   1.405       .  A
C1827      C1832   1.521       .  S
C1828      C1829   1.406       .  A
C1828      H1833   1.082       .  S
C1829      C1830   1.416       .  A
C1830      C1834   1.517       .  S
C1831      C1836   1.412       .  A
C1831      C1840   1.397       .  A
C1832      F1848   1.382       .  S
C1832      F1849   1.382       .  S
C1832      F1850   1.385       .  S
C1834      F1845   1.382       .  S
C1834      F1846   1.384       .  S
C1834      F1847   1.380       .  S
C1836      C1837   1.404       .  A
C1836      C1841   1.519       .  S
C1837      C1838   1.408       .  A
C1837      H1842   1.082       .  S
C1838      C1839   1.429       .  A
C1839      C1840   1.405       .  A
C1839      C1843   1.523       .  S
C1840      H1844   1.082       .  S
C1841      F1854   1.385       .  S
C1841      F1855   1.382       .  S
C1841      F1856   1.382       .  S
C1843      F1851   1.385       .  S
C1843      F1852   1.383       .  S
C1843      F1853   1.384       .  S
C1857      C1858   1.405       .  A
C1857      C1862   1.412       .  A
C1857      H1867   1.082       .  S
C1858      C1863   1.487       .  S
C1858      C1859   1.414       .  A
C1859      C1860   1.404       .  A
C1859      C1864   1.521       .  S
C1860      C1861   1.405       .  A
C1860      H1865   1.083       .  S
C1861      C1862   1.419       .  A
C1862      C1866   1.517       .  S
C1863      C1868   1.415       .  A
C1863      C1872   1.398       .  A
C1864      F1880   1.382       .  S
C1864      F1881   1.382       .  S
C1864      F1882   1.385       .  S
C1866      F1877   1.385       .  S
C1866      F1878   1.383       .  S
C1866      F1879   1.382       .  S
C1868      C1869   1.410       .  A
C1868      C1873   1.519       .  S
C1869      C1870   1.407       .  A
C1869      H1874   1.082       .  S
C1870      C1871   1.428       .  A
C1871      C1872   1.407       .  A
C1871      C1875   1.523       .  S
C1872      H1876   1.083       .  S
C1873      F1886   1.384       .  S
C1873      F1887   1.382       .  S
C1873      F1888   1.383       .  S
C1875      F1883   1.384       .  S
C1875      F1884   1.383       .  S
C1875      F1885   1.385       .  S
