geometry optimzed in LAMMPS
_audit_creation_date              2020-11-30 
_audit_creation_method            'lammps2cif' 
_symmetry_space_group_name_H-M    'P1' 
_symmetry_Int_Tables_number       1 
_symmetry_cell_setting            triclinic 
loop_ 
_symmetry_equiv_pos_as_xyz 
  x,y,z 
_cell_length_a                    36.1556898 
_cell_length_b                    36.7151123995325 
_cell_length_c                    21.704434959381736 
_cell_angle_alpha                 89.1293680496143 
_cell_angle_beta                  90.35147311593214 
_cell_angle_gamma                 86.34007816911226 
loop_ 
_atom_site_label 
_atom_site_type_symbol 
_atom_site_fract_x 
_atom_site_fract_y 
_atom_site_fract_z 
_atom_site_charge 
O1          O  0.45165203  0.42270098  0.44847449    -0.80400
O2          O  0.06728097  0.03251392  0.06141350    -0.80400
O3          O  0.03690714  0.50145225  0.35620447    -0.80400
O4          O  0.99106863  0.44344540  0.12325284    -0.80400
O5          O  0.06335166  0.99775088  0.44810795    -0.80500
O6          O  0.50684654  0.42678322  0.03144417    -0.80400
O7          O  0.04994992  0.48470576  0.11234817    -0.80400
O8          O  0.00448260  0.44390753  0.41454795    -0.80400
C9          C  0.98007809  0.41905833  0.41411673     1.09300
C10         C  0.07460503  0.50570533  0.09775892     1.09200
C11         C  0.06652086  0.99825125  0.38889940     1.09300
C12         C  0.50151944  0.41868905  0.08687813     1.09200
O13         O  0.43124208  0.45638613  0.06303428    -0.80400
O14         O  0.05667681  0.07153375  0.45291466    -0.80500
O15         O  0.45588878  0.00629363  0.37927280    -0.80400
O16         O  0.50186733  0.04960663  0.12851304    -0.80400
O17         O  0.00103388  0.07545884  0.03610043    -0.80400
O18         O  0.42658810  0.49316208  0.46206426    -0.80400
O19         O  0.44254383  0.00532685  0.11819873    -0.80400
O20         O  0.50238021  0.05771688  0.41615359    -0.80400
Co21       Co  0.46785861  0.46167919  0.49427904     1.51500
Co22       Co  0.02973749  0.03532080  0.99395800     1.51700
Co23       Co  0.00453422  0.00104641  0.42668900     1.51600
Co24       Co  0.49645105  0.49657174  0.11425118     1.51500
O25         O  0.49127549  0.50244548  0.52078655    -1.42300
C26         C  0.42088619  0.48163156  0.10033727     1.09200
C27         C  0.02875742  0.07995425  0.41875394     1.09300
C28         C  0.42538054  0.00362398  0.40699514     1.09300
C29         C  0.49922967  0.07770992  0.09388213     1.09200
C30         C  0.99830302  0.28274186  0.27844373     0.02000
C31         C  0.99797826  0.28133378  0.21312241     0.02000
C32         C  0.99963009  0.24753993  0.18394599    -0.18500
C33         C  0.00257458  0.21493892  0.21819566     0.02000
C34         C  0.00520165  0.21611753  0.28298109     0.02000
C35         C  0.00323795  0.24988557  0.31244595    -0.18500
H36         H  0.00483579  0.25057486  0.36230912     0.04000
H37         H  0.99834101  0.24661969  0.13405692     0.04000
C38         C  0.28270912  0.99570113  0.22662251     0.02000
C39         C  0.28082722  0.00805731  0.28802754     0.02000
C40         C  0.24555158  0.01432662  0.31513601    -0.18500
C41         C  0.21275646  0.00883193  0.28182867     0.02000
C42         C  0.21574035  0.99808213  0.21935456     0.02000
C43         C  0.25045681  0.99060593  0.19359841    -0.18500
H44         H  0.25250042  0.98078514  0.14679843     0.04000
H45         H  0.24346925  0.02342954  0.36224732     0.04000
C46         C  0.14066768  0.01951031  0.10012568    -0.20600
C47         C  0.11228337  0.99919165  0.12415009    -0.07100
C48         C  0.12048833  0.47430301  0.17403958     0.13700
C49         C  0.15637022  0.47112201  0.19844577    -0.20600
C50         C  0.18289736  0.99485414  0.17958390    -0.07100
C51         C  0.17570930  0.01829071  0.12798402     0.13700
C52         C  0.20376757  0.04381126  0.10447878    -0.24000
H53         H  0.13496247  0.03788655  0.06118834     0.15000
H54         H  0.16284005  0.45244325  0.23674035     0.15100
C55         C  0.09161882  0.45296385  0.20578409    -0.23900
H56         H  0.19213849  0.06206092  0.06691482     0.05300
H57         H  0.22816104  0.52797210  0.08551015     0.08700
H58         H  0.21285324  0.06129143  0.14224443     0.08500
H59         H  0.07995744  0.43349377  0.17361006     0.08500
H60         H  0.06923697  0.97195534  0.22382220     0.08500
H61         H  0.10352858  0.43689083  0.24569251     0.05300
C62         C  0.17075315  0.98348092  0.35988832    -0.20600
C63         C  0.17610049  0.01014272  0.31421022    -0.07100
C64         C  0.14516120  0.03322886  0.29467652     0.13700
C65         C  0.10954335  0.02650149  0.31625738    -0.20600
C66         C  0.10407322  0.99942011  0.36114272    -0.07100
C67         C  0.13544755  0.97843004  0.38465311     0.13700
C68         C  0.13194235  0.95000417  0.43476172    -0.24000
H69         H  0.19431956  0.96586157  0.37524230     0.15000
H70         H  0.08601471  0.54377883  0.29992516     0.15100
C71         C  0.14886378  0.56541628  0.25189334    -0.23900
H72         H  0.15886983  0.93474361  0.44483446     0.05300
H73         H  0.11194068  0.43003672  0.42056098     0.08500
H74         H  0.12250973  0.96313761  0.47810668     0.08500
H75         H  0.13182532  0.56236144  0.20984432     0.08500
H76         H  0.17793507  0.06882550  0.23843490     0.08500
H77         H  0.13872924  0.59082556  0.27499184     0.05300
C78         C  0.32662096  0.01758049  0.15085395    -0.20600
C79         C  0.31778250  0.99023416  0.19294184    -0.07100
C80         C  0.34077343  0.45777736  0.19855711     0.13700
C81         C  0.37379157  0.45467126  0.16507843    -0.20600
C82         C  0.38360967  0.48305920  0.12590326    -0.07100
C83         C  0.35931367  0.01429355  0.11695982     0.13700
C84         C  0.36745376  0.04366154  0.07066458    -0.24000
H85         H  0.30790102  0.04167203  0.14496796     0.15000
H86         H  0.39254650  0.43065745  0.17108436     0.15100
C87         C  0.33049530  0.42653766  0.23928377    -0.23900
H88         H  0.34546741  0.06622230  0.06969176     0.05300
H89         H  0.36932415  0.03183354  0.02395582     0.08500
H90         H  0.39403628  0.05535178  0.08204602     0.08500
H91         H  0.30286548  0.41769976  0.22557058     0.08500
H92         H  0.32977191  0.43510585  0.28786742     0.08500
H93         H  0.35087228  0.40270112  0.23594857     0.05300
C94         C  0.35990797  0.98802905  0.40209400    -0.20600
C95         C  0.38803226  0.00866300  0.37724769    -0.07100
C96         C  0.37922230  0.53232549  0.32672611     0.13700
C97         C  0.34293163  0.53412310  0.30198016    -0.20600
C98         C  0.31564014  0.01165516  0.32455299    -0.07100
C99         C  0.32419122  0.98895303  0.37647614     0.13700
C100        C  0.29659240  0.96402786  0.40346414    -0.24000
H101        H  0.36621039  0.96982647  0.44106998     0.15000
H102        H  0.33617225  0.55216876  0.26303902     0.15100
C103        C  0.40766446  0.55564554  0.29882413    -0.23900
H104        H  0.30924310  0.94585640  0.44029114     0.05300
H105        H  0.28579956  0.44637198  0.36728482     0.08500
H106        H  0.27325888  0.98033616  0.42449639     0.08500
H107        H  0.43046580  0.53807489  0.27867000     0.08500
H108        H  0.41903914  0.07318169  0.33463165     0.08500
H109        H  0.39537595  0.57368490  0.26159863     0.05300
C110        C  0.46915896  0.16157082  0.18500786    -0.20600
C111        C  0.00196506  0.18000946  0.18514023    -0.07100
C112        C  0.03295246  0.16575354  0.15207009     0.13700
C113        C  0.03064300  0.13284834  0.12068312    -0.20600
C114        C  0.99823537  0.11384497  0.12227581    -0.07100
C115        C  0.46706288  0.12837715  0.15443916     0.13700
C116        C  0.43136835  0.10955596  0.15469204    -0.24000
H117        H  0.44498181  0.17349183  0.20809651     0.15000
H118        H  0.05454335  0.12136759  0.09605868     0.15100
C119        C  0.06857207  0.18488093  0.15077062    -0.23900
H120        H  0.40991177  0.12423251  0.18306780     0.05300
H121        H  0.43616269  0.08137292  0.17350272     0.08500
H122        H  0.42069898  0.10862652  0.10678403     0.08500
H123        H  0.07923128  0.18754291  0.19844423     0.08500
H124        H  0.06371368  0.21244442  0.12944822     0.08500
H125        H  0.09023237  0.16960080  0.12366120     0.05300
C126        C  0.48776375  0.13049268  0.37533630    -0.20600
C127        C  0.02410166  0.11600003  0.38691009    -0.07100
C128        C  0.05426541  0.13604605  0.36728436     0.13700
C129        C  0.04710060  0.16858053  0.33316103    -0.20600
C130        C  0.01074368  0.18232030  0.32060704    -0.07100
C131        C  0.48070552  0.16373999  0.34381233     0.13700
C132        C  0.44093717  0.17823568  0.33683917    -0.24000
H133        H  0.46445548  0.11604420  0.39188466     0.15000
H134        H  0.06997020  0.18360416  0.31644713     0.15100
C135        C  0.09391552  0.12351934  0.38152877    -0.23900
H136        H  0.42490352  0.15808537  0.31215644     0.05300
H137        H  0.43790808  0.20457387  0.31112868     0.08500
H138        H  0.42870355  0.18250138  0.38317115     0.08500
H139        H  0.09995997  0.09562985  0.36420961     0.08500
H140        H  0.09876153  0.12361325  0.43206243     0.08500
H141        H  0.11374218  0.14164410  0.35982063     0.05300
C142        C  0.46698965  0.37087044  0.13493017    -0.20600
C143        C  0.50029292  0.38073936  0.10844288    -0.07100
C144        C  0.03154520  0.35583288  0.10955382     0.13700
C145        C  0.02977136  0.32295085  0.14305188    -0.20600
C146        C  0.99719177  0.31454062  0.17383266    -0.07100
C147        C  0.46478907  0.33761794  0.16639214     0.13700
C148        C  0.42788775  0.32701915  0.19030993    -0.24000
H149        H  0.44267009  0.38963646  0.13170846     0.15000
H150        H  0.05410830  0.30420611  0.14680773     0.15100
C151        C  0.06674179  0.36436266  0.07725031    -0.23900
H152        H  0.40527461  0.34787297  0.17827002     0.05300
H153        H  0.42874336  0.32400036  0.24096800     0.08500
H154        H  0.42095167  0.30073693  0.16991456     0.08500
H155        H  0.07741816  0.38965965  0.09575690     0.08500
H156        H  0.06116430  0.36826887  0.02713843     0.08500
H157        H  0.08861321  0.34192699  0.08335449     0.05300
C158        C  0.01885384  0.34453697  0.30433510    -0.20600
C159        C  0.99323040  0.31777479  0.31250326    -0.07100
C160        C  0.46363531  0.32451629  0.35409593     0.13700
C161        C  0.46085992  0.35729562  0.38654855    -0.20600
C162        C  0.98619299  0.38453105  0.37826389    -0.07100
C163        C  0.01559869  0.37786982  0.33589375     0.13700
C164        C  0.04370374  0.40540391  0.32282082    -0.24000
H165        H  0.04175898  0.33919320  0.27310725     0.15000
H166        H  0.43797577  0.36163171  0.41817501     0.15100
C167        C  0.43342256  0.29852267  0.36407048    -0.23900
H168        H  0.06419210  0.39524242  0.28826795     0.05300
H169        H  0.05921615  0.41088517  0.36552201     0.08500
H170        H  0.02964117  0.43104062  0.30422695     0.08500
H171        H  0.43441309  0.28829630  0.41249098     0.08500
H172        H  0.43528619  0.27487237  0.33301165     0.08500
H173        H  0.40600494  0.31313513  0.35526626     0.05300
O174        O  0.45165308  0.42270101  0.94847114    -0.80400
O175        O  0.06727960  0.03251420  0.56141515    -0.80400
O176        O  0.03690930  0.50145173  0.85620383    -0.80400
O177        O  0.99106605  0.44344716  0.62325607    -0.80400
O178        O  0.06335224  0.99775067  0.94810690    -0.80500
O179        O  0.50684881  0.42678403  0.53144198    -0.80400
O180        O  0.04994709  0.48470808  0.61235669    -0.80400
O181        O  0.00448219  0.44390772  0.91454682    -0.80400
C182        C  0.98007753  0.41905869  0.91411612     1.09300
C183        C  0.07460266  0.50570635  0.59776357     1.09200
C184        C  0.06652218  0.99825210  0.88889858     1.09300
C185        C  0.50152351  0.41868953  0.58687628     1.09200
O186        O  0.43124429  0.45638662  0.56303696    -0.80400
O187        O  0.05667886  0.07153293  0.95291505    -0.80500
O188        O  0.45589150  0.00629356  0.87927228    -0.80400
O189        O  0.50186976  0.04960653  0.62851168    -0.80400
O190        O  0.00103265  0.07545945  0.53610051    -0.80400
O191        O  0.42658834  0.49316208  0.96206215    -0.80400
O192        O  0.44254609  0.00532656  0.61820150    -0.80400
O193        O  0.50238139  0.05771769  0.91615645    -0.80400
Co194      Co  0.46785803  0.46167882  0.99427862     1.51500
Co195      Co  0.02973652  0.03532110  0.49395896     1.51700
Co196      Co  0.00453505  0.00104591  0.92668712     1.51600
Co197      Co  0.49645381  0.49657219  0.61424946     1.51500
O198        O  0.49127473  0.50244481  0.02078782    -1.42300
C199        C  0.42088832  0.48163287  0.60033827     1.09200
C200        C  0.02876021  0.07995333  0.91875287     1.09300
C201        C  0.42538290  0.00362373  0.90699329     1.09300
C202        C  0.49923121  0.07771029  0.59388181     1.09200
C203        C  0.99830767  0.28274145  0.77844777     0.02000
C204        C  0.99798204  0.28133421  0.71312640     0.02000
C205        C  0.99963380  0.24754091  0.68394867    -0.18500
C206        C  0.00257847  0.21493947  0.71819681     0.02000
C207        C  0.00520642  0.21611721  0.78298239     0.02000
C208        C  0.00324349  0.24988481  0.81244862    -0.18500
H209        H  0.00484191  0.25057344  0.86231181     0.04000
H210        H  0.99834363  0.24662145  0.63405958     0.04000
C211        C  0.28270915  0.99570515  0.72662182     0.02000
C212        C  0.28082884  0.00806161  0.78802672     0.02000
C213        C  0.24555387  0.01433256  0.81513697    -0.18500
C214        C  0.21275775  0.00883907  0.78183145     0.02000
C215        C  0.21574005  0.99808855  0.71935751     0.02000
C216        C  0.25045588  0.99061131  0.69359939    -0.18500
H217        H  0.25249823  0.98079026  0.64679929     0.04000
H218        H  0.24347291  0.02343527  0.86224845     0.04000
C219        C  0.14066500  0.01951412  0.60013161    -0.20600
C220        C  0.11228119  0.99919549  0.62415789    -0.07100
C221        C  0.12048687  0.47430591  0.67404582     0.13700
C222        C  0.15636913  0.47112564  0.69845088    -0.20600
C223        C  0.18289599  0.99486005  0.67958946    -0.07100
C224        C  0.17570672  0.01829597  0.62798923     0.13700
C225        C  0.20376385  0.04381739  0.60448288    -0.24000
H226        H  0.13495929  0.03788947  0.56119317     0.15000
H227        H  0.16283961  0.45244754  0.73674635     0.15100
C228        C  0.09161788  0.45296724  0.70579233    -0.23900
H229        H  0.19213397  0.06206633  0.56691850     0.05300
H230        H  0.22815776  0.52797510  0.58550906     0.08700
H231        H  0.21284891  0.06129835  0.64224791     0.08500
H232        H  0.07995660  0.43349617  0.67361989     0.08500
H233        H  0.06923618  0.97196302  0.72383415     0.08500
H234        H  0.10352833  0.43689547  0.74570175     0.05300
C235        C  0.17075560  0.98348803  0.85989268    -0.20600
C236        C  0.17610236  0.01015030  0.81421509    -0.07100
C237        C  0.14516246  0.03323571  0.79468144     0.13700
C238        C  0.10954463  0.02650678  0.81626092    -0.20600
C239        C  0.10407493  0.99942399  0.86114403    -0.07100
C240        C  0.13544982  0.97843517  0.88465528     0.13700
C241        C  0.13194483  0.95000798  0.93476178    -0.24000
H242        H  0.19432231  0.96586934  0.87524669     0.15000
H243        H  0.08601605  0.54378214  0.79992854     0.15100
C244        C  0.14886461  0.56542052  0.75189575    -0.23900
H245        H  0.15887262  0.93474802  0.94483465     0.05300
H246        H  0.11194421  0.43003994  0.92056226     0.08500
H247        H  0.12251122  0.96314018  0.97810716     0.08500
H248        H  0.13182621  0.56236523  0.70984684     0.08500
H249        H  0.17793548  0.06883347  0.73844065     0.08500
H250        H  0.13872960  0.59082975  0.77499407     0.05300
C251        C  0.32662236  0.01758345  0.65085457    -0.20600
C252        C  0.31778207  0.99023659  0.69294005    -0.07100
C253        C  0.34077195  0.45777952  0.69855029     0.13700
C254        C  0.37379085  0.45467321  0.66507378    -0.20600
C255        C  0.38361110  0.48306180  0.62590205    -0.07100
C256        C  0.35931608  0.01429639  0.61696297     0.13700
C257        C  0.36745879  0.04366597  0.57067236    -0.24000
H258        H  0.30790359  0.04167581  0.64496961     0.15000
H259        H  0.39254492  0.43065858  0.67107903     0.15100
C260        C  0.33049215  0.42653927  0.73927410    -0.23900
H261        H  0.34547349  0.06622772  0.56970075     0.05300
H262        H  0.36933002  0.03184006  0.52396212     0.08500
H263        H  0.39404157  0.05535444  0.58205779     0.08500
H264        H  0.30286148  0.41770357  0.72556084     0.08500
H265        H  0.32977017  0.43510587  0.78785851     0.08500
H266        H  0.35086761  0.40270168  0.73593616     0.05300
C267        C  0.35991046  0.98802887  0.90208978    -0.20600
C268        C  0.38803491  0.00866319  0.87724499    -0.07100
C269        C  0.37922428  0.53232667  0.82672404     0.13700
C270        C  0.34293382  0.53412466  0.80197711    -0.20600
C271        C  0.31564262  0.01165746  0.82455077    -0.07100
C272        C  0.32419361  0.98895394  0.87647225     0.13700
C273        C  0.29659434  0.96402879  0.90345909    -0.24000
H274        H  0.36621273  0.96982538  0.94106467     0.15000
H275        H  0.33617457  0.55217149  0.76303752     0.15100
C276        C  0.40766636  0.55564819  0.79882554    -0.23900
H277        H  0.30924487  0.94585627  0.94028479     0.05300
H278        H  0.28580168  0.44637089  0.86727114     0.08500
H279        H  0.27326126  0.98033709  0.92449261     0.08500
H280        H  0.43046849  0.53807859  0.77867122     0.08500
H281        H  0.41904104  0.07318366  0.83463600     0.08500
H282        H  0.39537822  0.57368833  0.76160081     0.05300
C283        C  0.46916503  0.16157281  0.68500789    -0.20600
C284        C  0.00196708  0.18001082  0.68513931    -0.07100
C285        C  0.03295193  0.16575649  0.65206109     0.13700
C286        C  0.03064089  0.13285144  0.62067432    -0.20600
C287        C  0.99823386  0.11384729  0.62227343    -0.07100
C288        C  0.46706706  0.12837927  0.65443920     0.13700
C289        C  0.43137122  0.10956033  0.65469156    -0.24000
H290        H  0.44498815  0.17349572  0.70809492     0.15000
H291        H  0.05453966  0.12137134  0.59604494     0.15100
C292        C  0.06857043  0.18488558  0.65075209    -0.23900
H293        H  0.40991546  0.12423786  0.68306771     0.05300
H294        H  0.43616387  0.08137698  0.67350172     0.08500
H295        H  0.42070172  0.10863198  0.60678352     0.08500
H296        H  0.07923381  0.18754814  0.69842307     0.08500
H297        H  0.06370889  0.21244884  0.62943012     0.08500
H298        H  0.09022880  0.16960640  0.62363725     0.05300
C299        C  0.48776703  0.13049468  0.87533905    -0.20600
C300        C  0.02410527  0.11599890  0.88690863    -0.07100
C301        C  0.05426926  0.13604664  0.86728929     0.13700
C302        C  0.04710491  0.16858125  0.83316604    -0.20600
C303        C  0.01074808  0.18231966  0.82060736    -0.07100
C304        C  0.48071055  0.16374208  0.84381424     0.13700
C305        C  0.44094283  0.17823961  0.83683953    -0.24000
H306        H  0.46445796  0.11604695  0.89188609     0.15000
H307        H  0.06997466  0.18360601  0.81645578     0.15100
C308        C  0.09391902  0.12352187  0.88154075    -0.23900
H309        H  0.42490827  0.15808985  0.81215720     0.05300
H310        H  0.43791528  0.20457747  0.81112776     0.08500
H311        H  0.42870901  0.18250666  0.88317097     0.08500
H312        H  0.09996640  0.09563288  0.86422135     0.08500
H313        H  0.09876148  0.12361533  0.93207533     0.08500
H314        H  0.11374604  0.14164818  0.85983752     0.05300
C315        C  0.46699673  0.37086907  0.63492876    -0.20600
C316        C  0.50029926  0.38073951  0.60844103    -0.07100
C317        C  0.03154417  0.35583428  0.60955529     0.13700
C318        C  0.02977165  0.32295166  0.64305192    -0.20600
C319        C  0.99719369  0.31454142  0.67383762    -0.07100
C320        C  0.46479778  0.33761624  0.66639030     0.13700
C321        C  0.42789690  0.32701527  0.69030647    -0.24000
H322        H  0.44267628  0.38963408  0.63170747     0.15000
H323        H  0.05410855  0.30420653  0.64680309     0.15100
C324        C  0.06673923  0.36436470  0.57724765    -0.23900
H325        H  0.40528282  0.34786801  0.67826614     0.05300
H326        H  0.42875201  0.32399606  0.74096450     0.08500
H327        H  0.42096265  0.30073276  0.66991013     0.08500
H328        H  0.07741679  0.38966096  0.59575529     0.08500
H329        H  0.06115931  0.36827259  0.52713673     0.08500
H330        H  0.08861064  0.34192859  0.58334695     0.05300
C331        C  0.01885430  0.34453861  0.80433481    -0.20600
C332        C  0.99323418  0.31777389  0.81250834    -0.07100
C333        C  0.46364159  0.32451616  0.85409396     0.13700
C334        C  0.46086420  0.35729585  0.88654533    -0.20600
C335        C  0.98619330  0.38453108  0.87826521    -0.07100
C336        C  0.01559652  0.37787247  0.83588972     0.13700
C337        C  0.04369501  0.40541122  0.82280427    -0.24000
H338        H  0.04175824  0.33919658  0.77310395     0.15000
H339        H  0.43797904  0.36163161  0.91817000     0.15100
C340        C  0.43343027  0.29852113  0.86406949    -0.23900
H341        H  0.06417995  0.39525194  0.78824454     0.05300
H342        H  0.05921231  0.41089629  0.86549890     0.08500
H343        H  0.02962594  0.43104544  0.80421284     0.08500
H344        H  0.43442136  0.28829543  0.91249042     0.08500
H345        H  0.43529502  0.27487054  0.83301149     0.08500
H346        H  0.40601200  0.31313222  0.85526481     0.05300
O347        O  0.45164733  0.92268530  0.44848556    -0.80400
O348        O  0.06730703  0.53249758  0.06142610    -0.80400
O349        O  0.03687975  0.00146659  0.35619198    -0.80400
O350        O  0.99106121  0.94345068  0.12325887    -0.80400
O351        O  0.06337170  0.49773281  0.44812648    -0.80500
O352        O  0.50684484  0.92678442  0.03144701    -0.80400
O353        O  0.04993573  0.98471883  0.11233883    -0.80400
O354        O  0.00446813  0.94391123  0.41454281    -0.80400
C355        C  0.98007643  0.91904906  0.41412791     1.09300
C356        C  0.07458551  0.00572380  0.09774757     1.09200
C357        C  0.06654499  0.49823029  0.38891944     1.09300
C358        C  0.50152352  0.91869112  0.08688326     1.09200
O359        O  0.43123355  0.95637433  0.06304556    -0.80400
O360        O  0.05671137  0.57151923  0.45292102    -0.80500
O361        O  0.45591360  0.50629428  0.37926890    -0.80400
O362        O  0.50189128  0.54960064  0.12852574    -0.80400
O363        O  0.00106894  0.57545408  0.03610843    -0.80400
O364        O  0.42656493  0.99314086  0.46206161    -0.80400
O365        O  0.44255622  0.50533491  0.11819344    -0.80400
O366        O  0.50241665  0.55771501  0.41616429    -0.80400
Co367      Co  0.46784488  0.96167022  0.49428120     1.51500
Co368      Co  0.02976549  0.53531172  0.99396746     1.51700
Co369      Co  0.00455644  0.50104076  0.42669273     1.51600
Co370      Co  0.49643845  0.99657489  0.11424436     1.51500
O371        O  0.49125317  0.00244489  0.52077961    -1.42300
C372        C  0.42087543  0.98162160  0.10034477     1.09200
C373        C  0.02879375  0.57994393  0.41875793     1.09300
C374        C  0.42540446  0.50363044  0.40699117     1.09300
C375        C  0.49926760  0.57770530  0.09389734     1.09200
C376        C  0.99834828  0.78273541  0.27844782     0.02000
C377        C  0.99801726  0.78132885  0.21312562     0.02000
C378        C  0.99966710  0.74753504  0.18394819    -0.18500
C379        C  0.00261410  0.71493320  0.21819674     0.02000
C380        C  0.00525130  0.71611045  0.28298142     0.02000
C381        C  0.00329275  0.74987831  0.31244682    -0.18500
H382        H  0.00489643  0.75056665  0.36230951     0.04000
H383        H  0.99837210  0.74661540  0.13405928     0.04000
C384        C  0.28272708  0.49566041  0.22663413     0.02000
C385        C  0.28084852  0.50801325  0.28804026     0.02000
C386        C  0.24557528  0.51427606  0.31515688    -0.18500
C387        C  0.21277902  0.50878321  0.28185193     0.02000
C388        C  0.21575903  0.49803483  0.21937577     0.02000
C389        C  0.25047434  0.49055922  0.19361637    -0.18500
H390        H  0.25251691  0.48073824  0.14681651     0.04000
H391        H  0.24349579  0.52337582  0.36227041     0.04000
C392        C  0.14069252  0.51947277  0.10013606    -0.20600
C393        C  0.11230179  0.49916374  0.12416258    -0.07100
C394        C  0.12047701  0.97433054  0.17402387     0.13700
C395        C  0.15635998  0.97115585  0.19842485    -0.20600
C396        C  0.18291478  0.49481236  0.17960331    -0.07100
C397        C  0.17573382  0.51824631  0.12799676     0.13700
C398        C  0.20379860  0.54375875  0.10448691    -0.24000
H399        H  0.13499278  0.53784736  0.06119462     0.15000
H400        H  0.16283589  0.95247568  0.23671531     0.15100
C401        C  0.09161384  0.95298464  0.20577107    -0.23900
H402        H  0.19217313  0.56200984  0.06692212     0.05300
H403        H  0.22813444  0.02803063  0.08550363     0.08700
H404        H  0.21288986  0.56123784  0.14225009     0.08500
H405        H  0.07995582  0.93351186  0.17359793     0.08500
H406        H  0.06924507  0.47193923  0.22383238     0.08500
H407        H  0.10352865  0.93691387  0.24567840     0.05300
C408        C  0.17077768  0.48345050  0.35993257    -0.20600
C409        C  0.17612532  0.51010167  0.31423644    -0.07100
C410        C  0.14518867  0.53318797  0.29469435     0.13700
C411        C  0.10957079  0.52646536  0.31627502    -0.20600
C412        C  0.10409882  0.49939197  0.36117210    -0.07100
C413        C  0.13547176  0.47840723  0.38470126     0.13700
C414        C  0.13196505  0.44999601  0.43483397    -0.24000
H415        H  0.19434347  0.46583412  0.37529810     0.15000
H416        H  0.08598598  0.04381641  0.29991693     0.15100
C417        C  0.14883379  0.06546199  0.25188514    -0.23900
H418        H  0.15889221  0.43473803  0.44492006     0.05300
H419        H  0.11191856  0.93004874  0.42047165     0.08500
H420        H  0.12253217  0.46314278  0.47816761     0.08500
H421        H  0.13179654  0.06240968  0.20983394     0.08500
H422        H  0.17796531  0.56877623  0.23844085     0.08500
H423        H  0.13869680  0.09086815  0.27499102     0.05300
C424        C  0.32662856  0.51756560  0.15087446    -0.20600
C425        C  0.31779732  0.49020733  0.19294487    -0.07100
C426        C  0.34075193  0.95780010  0.19857213     0.13700
C427        C  0.37377155  0.95467966  0.16509644    -0.20600
C428        C  0.38359571  0.98305603  0.12590156    -0.07100
C429        C  0.35932245  0.51429462  0.11698203     0.13700
C430        C  0.36745876  0.54367734  0.07071219    -0.24000
H431        H  0.30790356  0.54165468  0.14500445     0.15000
H432        H  0.39252215  0.93066357  0.17111725     0.15100
C433        C  0.33046354  0.92656991  0.23931122    -0.23900
H434        H  0.34546764  0.56623370  0.06975256     0.05300
H435        H  0.36933587  0.53186268  0.02399375     0.08500
H436        H  0.39403716  0.55537019  0.08211143     0.08500
H437        H  0.30283300  0.91773528  0.22559495     0.08500
H438        H  0.32973643  0.93514625  0.28789052     0.08500
H439        H  0.35083644  0.90272897  0.23599223     0.05300
C440        C  0.35994402  0.48800144  0.40208336    -0.20600
C441        C  0.38805687  0.50865121  0.37723951    -0.07100
C442        C  0.37920863  0.03233901  0.32673117     0.13700
C443        C  0.34291943  0.03414806  0.30197768    -0.20600
C444        C  0.31566329  0.51161769  0.32455612    -0.07100
C445        C  0.32422701  0.48891190  0.37646960     0.13700
C446        C  0.29664090  0.46397166  0.40345370    -0.24000
H447        H  0.36625614  0.46979805  0.44105487     0.15000
H448        H  0.33616986  0.05219188  0.26303016     0.15100
C449        C  0.40766078  0.05564931  0.29883311    -0.23900
H450        H  0.30930078  0.44580116  0.44027406     0.05300
H451        H  0.28574535  0.94642916  0.36729889     0.08500
H452        H  0.27330170  0.48026860  0.42449233     0.08500
H453        H  0.43045676  0.03807202  0.27867860     0.08500
H454        H  0.41903746  0.57318330  0.33461992     0.08500
H455        H  0.39537986  0.07369417  0.26160862     0.05300
C456        C  0.46921380  0.66156358  0.18504268    -0.20600
C457        C  0.00200037  0.68000405  0.18514141    -0.07100
C458        C  0.03298665  0.66574569  0.15207161     0.13700
C459        C  0.03067583  0.63283921  0.12068959    -0.20600
C460        C  0.99826782  0.61383683  0.12228694    -0.07100
C461        C  0.46711364  0.62836893  0.15447948     0.13700
C462        C  0.43142114  0.60954481  0.15475997    -0.24000
H463        H  0.44504061  0.67348384  0.20814291     0.15000
H464        H  0.05457508  0.62135721  0.09606409     0.15100
C465        C  0.06860615  0.68487296  0.15076470    -0.23900
H466        H  0.40997083  0.62422040  0.18314939     0.05300
H467        H  0.43622242  0.58136251  0.17357047     0.08500
H468        H  0.42074009  0.60861390  0.10685959     0.08500
H469        H  0.07926643  0.68753923  0.19843669     0.08500
H470        H  0.06374685  0.71243465  0.12943570     0.08500
H471        H  0.09026585  0.66959053  0.12365754     0.05300
C472        C  0.48781274  0.63049626  0.37536903    -0.20600
C473        C  0.02414297  0.61599069  0.38691391    -0.07100
C474        C  0.05430885  0.63603246  0.36728368     0.13700
C475        C  0.04714711  0.66856818  0.33316090    -0.20600
C476        C  0.01079123  0.68231197  0.32060732    -0.07100
C477        C  0.48075753  0.66374304  0.34384179     0.13700
C478        C  0.44099034  0.67824350  0.33687423    -0.24000
H479        H  0.46450282  0.61605255  0.39192447     0.15000
H480        H  0.07001837  0.68358882  0.31644517     0.15100
C481        C  0.09395795  0.62349837  0.38151954    -0.23900
H482        H  0.42495133  0.65809249  0.31220325     0.05300
H483        H  0.43796244  0.70457838  0.31115405     0.08500
H484        H  0.42876151  0.68251671  0.38320774     0.08500
H485        H  0.09999514  0.59560830  0.36419790     0.08500
H486        H  0.09880792  0.62359021  0.43205231     0.08500
H487        H  0.11378662  0.64161964  0.35980780     0.05300
C488        C  0.46700816  0.87086533  0.13494726    -0.20600
C489        C  0.50030763  0.88074098  0.10845463    -0.07100
C490        C  0.03155892  0.85583924  0.10954909     0.13700
C491        C  0.02979419  0.82295384  0.14304214    -0.20600
C492        C  0.99722091  0.81453736  0.17383655    -0.07100
C493        C  0.46481491  0.83761039  0.16640573     0.13700
C494        C  0.42791635  0.82700389  0.19032376    -0.24000
H495        H  0.44268513  0.88962752  0.13173103     0.15000
H496        H  0.05413337  0.80421101  0.14678249     0.15100
C497        C  0.06674803  0.86437375  0.07722677    -0.23900
H498        H  0.40529983  0.84785547  0.17829025     0.05300
H499        H  0.42877336  0.82398047  0.24098134     0.08500
H500        H  0.42098397  0.80072230  0.16992201     0.08500
H501        H  0.07742623  0.88967060  0.09573108     0.08500
H502        H  0.06116003  0.86828231  0.02711825     0.08500
H503        H  0.08862220  0.84193925  0.08331556     0.05300
C504        C  0.01886796  0.84454578  0.30432397    -0.20600
C505        C  0.99326485  0.81776654  0.31251243    -0.07100
C506        C  0.46366044  0.82449953  0.35411335     0.13700
C507        C  0.46087504  0.85727905  0.38656469    -0.20600
C508        C  0.98620324  0.88452211  0.37827574    -0.07100
C509        C  0.01559899  0.87787888  0.33588058     0.13700
C510        C  0.04367840  0.90543335  0.32277653    -0.24000
H511        H  0.04176755  0.83921606  0.27307992     0.15000
H512        H  0.43799341  0.86160649  0.41819901     0.15100
C513        C  0.43346047  0.79849299  0.36409911    -0.23900
H514        H  0.06416086  0.89528452  0.28820523     0.05300
H515        H  0.05920032  0.91092638  0.36546186     0.08500
H516        H  0.02959221  0.93106112  0.30419254     0.08500
H517        H  0.43446297  0.78826443  0.41251826     0.08500
H518        H  0.43532820  0.77484478  0.33303624     0.08500
H519        H  0.40603627  0.81309531  0.35530849     0.05300
O520        O  0.45165038  0.92268486  0.94848271    -0.80400
O521        O  0.06730530  0.53249707  0.56142689    -0.80400
O522        O  0.03688127  0.00146600  0.85619034    -0.80400
O523        O  0.99105834  0.94345357  0.62326348    -0.80400
O524        O  0.06337290  0.49773264  0.94812647    -0.80500
O525        O  0.50684581  0.92678520  0.53144282    -0.80400
O526        O  0.04993307  0.98472246  0.61234980    -0.80400
O527        O  0.00446673  0.94391107  0.91454009    -0.80400
C528        C  0.98007497  0.91904890  0.91412623     1.09300
C529        C  0.07458326  0.00572623  0.59775445     1.09200
C530        C  0.06654690  0.49823084  0.88891963     1.09300
C531        C  0.50152683  0.91869122  0.58687937     1.09200
O532        O  0.43123461  0.95637453  0.56304843    -0.80400
O533        O  0.05671402  0.57151883  0.95292141    -0.80500
O534        O  0.45591517  0.50629456  0.87926838    -0.80400
O535        O  0.50189431  0.54960114  0.62852375    -0.80400
O536        O  0.00106676  0.57545389  0.53610806    -0.80400
O537        O  0.42656656  0.99314025  0.96205947    -0.80400
O538        O  0.44255895  0.50533561  0.61819471    -0.80400
O539        O  0.50241686  0.55771610  0.91616733    -0.80400
Co540      Co  0.46784579  0.96166961  0.99428127     1.51500
Co541      Co  0.02976385  0.53531153  0.49396785     1.51700
Co542      Co  0.00455788  0.50104061  0.92669169     1.51600
Co543      Co  0.49644070  0.99657473  0.61424256     1.51500
O544        O  0.49125347  0.00244424  0.02078099    -1.42300
C545        C  0.42087695  0.98162197  0.60034754     1.09200
C546        C  0.02879699  0.57994331  0.91875708     1.09300
C547        C  0.42540562  0.50363050  0.90698914     1.09300
C548        C  0.49927032  0.57770614  0.59389608     1.09200
C549        C  0.99835198  0.78273432  0.77845101     0.02000
C550        C  0.99801983  0.78132904  0.71312882     0.02000
C551        C  0.99966908  0.74753601  0.68394924    -0.18500
C552        C  0.00261674  0.71493352  0.71819573     0.02000
C553        C  0.00525580  0.71610952  0.78298049     0.02000
C554        C  0.00329781  0.74987672  0.81244799    -0.18500
H555        H  0.00490239  0.75056411  0.86231066     0.04000
H556        H  0.99837258  0.74661751  0.63406052     0.04000
C557        C  0.28272715  0.49566425  0.72662960     0.02000
C558        C  0.28084995  0.50801641  0.78803615     0.02000
C559        C  0.24557741  0.51427954  0.81515500    -0.18500
C560        C  0.21278030  0.50878735  0.78185201     0.02000
C561        C  0.21575880  0.49803875  0.71937571     0.02000
C562        C  0.25047358  0.49056331  0.69361391    -0.18500
H563        H  0.25251510  0.48074214  0.64681390     0.04000
H564        H  0.24349921  0.52337860  0.86226903     0.04000
C565        C  0.14068996  0.51947404  0.60013871    -0.20600
C566        C  0.11229961  0.49916537  0.62416729    -0.07100
C567        C  0.12047559  0.97433598  0.67403366     0.13700
C568        C  0.15635909  0.97116181  0.69843284    -0.20600
C569        C  0.18291346  0.49481564  0.67960575    -0.07100
C570        C  0.17573146  0.51824861  0.62799834     0.13700
C571        C  0.20379526  0.54376140  0.60448638    -0.24000
H572        H  0.13498977  0.53784773  0.56119638     0.15000
H573        H  0.16283583  0.95248224  0.73672387     0.15100
C574        C  0.09161284  0.95299151  0.70578466    -0.23900
H575        H  0.19216881  0.56201184  0.56692137     0.05300
H576        H  0.22813121  0.02803752  0.58550808     0.08700
H577        H  0.21288655  0.56124122  0.64224837     0.08500
H578        H  0.07995445  0.93351723  0.67361440     0.08500
H579        H  0.06924407  0.47194282  0.72383994     0.08500
H580        H  0.10352820  0.93692269  0.74569379     0.05300
C581        C  0.17078039  0.48345552  0.85993582    -0.20600
C582        C  0.17612727  0.51010636  0.81423876    -0.07100
C583        C  0.14519019  0.53319224  0.79469711     0.13700
C584        C  0.10957250  0.52646896  0.81627796    -0.20600
C585        C  0.10410105  0.49939481  0.86117398    -0.07100
C586        C  0.13547450  0.47841120  0.88470392     0.13700
C587        C  0.13196816  0.44999963  0.93483617    -0.24000
H588        H  0.19434650  0.46583976  0.87530154     0.15000
H589        H  0.08598684  0.04382110  0.79992046     0.15100
C590        C  0.14883426  0.06546908  0.75189024    -0.23900
H591        H  0.15889563  0.43474225  0.94492262     0.05300
H592        H  0.11192171  0.93005227  0.92046916     0.08500
H593        H  0.12253468  0.46314602  0.97816974     0.08500
H594        H  0.13179749  0.06241613  0.70983865     0.08500
H595        H  0.17796603  0.56878090  0.73844309     0.08500
H596        H  0.13869617  0.09087497  0.77499581     0.05300
C597        C  0.32662999  0.51756922  0.65087118    -0.20600
C598        C  0.31779704  0.49021035  0.69293934    -0.07100
C599        C  0.34075017  0.95780153  0.69856905     0.13700
C600        C  0.37377024  0.95468043  0.66509443    -0.20600
C601        C  0.38359673  0.98305763  0.62590327    -0.07100
C602        C  0.35932482  0.51429802  0.61698087     0.13700
C603        C  0.36746318  0.54368151  0.57071371    -0.24000
H604        H  0.30790600  0.54165894  0.64500195     0.15000
H605        H  0.39251963  0.93066328  0.67111377     0.15100
C606        C  0.33046036  0.92657123  0.73930659    -0.23900
H607        H  0.34547263  0.56623839  0.56975385     0.05300
H608        H  0.36934133  0.53186798  0.52399450     0.08500
H609        H  0.39404161  0.55537332  0.58211608     0.08500
H610        H  0.30282911  0.91773838  0.72559063     0.08500
H611        H  0.32973438  0.93514675  0.78788641     0.08500
H612        H  0.35083195  0.90272937  0.73598597     0.05300
C613        C  0.35994608  0.48799949  0.90207608    -0.20600
C614        C  0.38805861  0.50865095  0.87723563    -0.07100
C615        C  0.37921145  0.03234053  0.82673011     0.13700
C616        C  0.34292229  0.03415020  0.80197630    -0.20600
C617        C  0.31566539  0.51161866  0.82455103    -0.07100
C618        C  0.32422924  0.48891054  0.87646161     0.13700
C619        C  0.29664326  0.46396887  0.90344223    -0.24000
H620        H  0.36625822  0.46979469  0.94104572     0.15000
H621        H  0.33617281  0.05219502  0.76302983     0.15100
C622        C  0.40766353  0.05565220  0.79883527    -0.23900
H623        H  0.30930330  0.44579666  0.94026011     0.05300
H624        H  0.28574647  0.94643121  0.86729295     0.08500
H625        H  0.27330403  0.48026473  0.92448296     0.08500
H626        H  0.43046017  0.03807598  0.77868020     0.08500
H627        H  0.41903826  0.57318518  0.83462355     0.08500
H628        H  0.39538284  0.07369803  0.76161187     0.05300
C629        C  0.46922116  0.66156554  0.68504256    -0.20600
C630        C  0.00200106  0.68000527  0.68513800    -0.07100
C631        C  0.03298554  0.66574756  0.65206298     0.13700
C632        C  0.03067358  0.63284076  0.62068252    -0.20600
C633        C  0.99826576  0.61383825  0.62228399    -0.07100
C634        C  0.46711909  0.62837127  0.65447870     0.13700
C635        C  0.43142536  0.60954917  0.65475862    -0.24000
H636        H  0.44504839  0.67348729  0.70814191     0.15000
H637        H  0.05457195  0.62135868  0.59605433     0.15100
C638        C  0.06860403  0.68487630  0.65074764    -0.23900
H639        H  0.40997569  0.62422582  0.68314787     0.05300
H640        H  0.43622501  0.58136670  0.67356933     0.08500
H641        H  0.42074437  0.60861875  0.60685818     0.08500
H642        H  0.07926753  0.68754393  0.69841744     0.08500
H643        H  0.06374214  0.71243739  0.62941749     0.08500
H644        H  0.09026232  0.66959422  0.62363700     0.05300
C645        C  0.48781565  0.63049892  0.87537221    -0.20600
C646        C  0.02414685  0.61598960  0.88691183    -0.07100
C647        C  0.05431288  0.63603317  0.86728777     0.13700
C648        C  0.04715147  0.66856881  0.83316444    -0.20600
C649        C  0.01079561  0.68231059  0.82060485    -0.07100
C650        C  0.48076252  0.66374583  0.84384402     0.13700
C651        C  0.44099611  0.67824854  0.83687471    -0.24000
H652        H  0.46450469  0.61605624  0.89192657     0.15000
H653        H  0.07002277  0.68359079  0.81645293     0.15100
C654        C  0.09396170  0.62350138  0.88153103    -0.23900
H655        H  0.42495608  0.65809827  0.81220393     0.05300
H656        H  0.43797014  0.70458309  0.81115333     0.08500
H657        H  0.42876696  0.68252318  0.88320770     0.08500
H658        H  0.10000215  0.59561176  0.86420902     0.08500
H659        H  0.09880796  0.62359286  0.93206478     0.08500
H660        H  0.11379060  0.64162429  0.85982435     0.05300
C661        C  0.46701535  0.87086422  0.63494694    -0.20600
C662        C  0.50031324  0.88074070  0.60845014    -0.07100
C663        C  0.03155877  0.85584239  0.60955641     0.13700
C664        C  0.02979493  0.82295609  0.64304691    -0.20600
C665        C  0.99722227  0.81453831  0.67384181    -0.07100
C666        C  0.46482424  0.83760922  0.66640578     0.13700
C667        C  0.42792663  0.82700155  0.69032609    -0.24000
H668        H  0.44269175  0.88962593  0.63173382     0.15000
H669        H  0.05413448  0.80421347  0.64678507     0.15100
C670        C  0.06674751  0.86437873  0.57723462    -0.23900
H671        H  0.40530906  0.84785200  0.67829249     0.05300
H672        H  0.42878439  0.82397911  0.74098362     0.08500
H673        H  0.42099503  0.80071926  0.66992605     0.08500
H674        H  0.07742491  0.88967554  0.59574102     0.08500
H675        H  0.06115942  0.86828833  0.52712637     0.08500
H676        H  0.08862235  0.84194477  0.58332196     0.05300
C677        C  0.01886788  0.84454625  0.80432398    -0.20600
C678        C  0.99326769  0.81776481  0.81251704    -0.07100
C679        C  0.46366929  0.82449924  0.85411164     0.13700
C680        C  0.46088213  0.85727883  0.88656249    -0.20600
C681        C  0.98620256  0.88452150  0.87827606    -0.07100
C682        C  0.01559624  0.87788046  0.83587649     0.13700
C683        C  0.04366960  0.90543918  0.82276066    -0.24000
H684        H  0.04176660  0.83921796  0.77307778     0.15000
H685        H  0.43799976  0.86160561  0.91819544     0.15100
C686        C  0.43347055  0.79849136  0.86409806    -0.23900
H687        H  0.06414895  0.89529246  0.78818305     0.05300
H688        H  0.05919600  0.91093587  0.86544003     0.08500
H689        H  0.02957738  0.93106454  0.80417862     0.08500
H690        H  0.43447412  0.78826252  0.91251709     0.08500
H691        H  0.43533870  0.77484344  0.83303468     0.08500
H692        H  0.40604569  0.81309258  0.85530868     0.05300
O693        O  0.95165010  0.42269901  0.44847495    -0.80400
O694        O  0.56727460  0.03252305  0.06141313    -0.80400
O695        O  0.53690556  0.50145851  0.35619650    -0.80400
O696        O  0.49106035  0.44345237  0.12325280    -0.80400
O697        O  0.56334971  0.99775933  0.44810347    -0.80500
O698        O  0.00684852  0.42677793  0.03144020    -0.80400
O699        O  0.54994617  0.48470778  0.11234947    -0.80400
O700        O  0.50448157  0.44391289  0.41454066    -0.80400
C701        C  0.48007940  0.41906116  0.41411459     1.09300
C702        C  0.57460263  0.50570592  0.09776039     1.09200
C703        C  0.56652109  0.99826053  0.38889554     1.09300
C704        C  0.00152759  0.41868318  0.08687558     1.09200
O705        O  0.93124472  0.45637821  0.06304237    -0.80400
O706        O  0.55667292  0.07154080  0.45290992    -0.80500
O707        O  0.95588895  0.00629238  0.37928193    -0.80400
O708        O  0.00186969  0.04960354  0.12852009    -0.80400
O709        O  0.50102431  0.07546182  0.03609283    -0.80400
O710        O  0.92658804  0.49316033  0.46207266    -0.80400
O711        O  0.94254402  0.00532499  0.11820280    -0.80400
O712        O  0.00238020  0.05771503  0.41616698    -0.80400
Co713      Co  0.96785753  0.46167456  0.49428439     1.51500
Co714      Co  0.52973339  0.03532647  0.99395392     1.51700
Co715      Co  0.50453409  0.00104874  0.42667999     1.51600
Co716      Co  0.99645438  0.49656596  0.11425444     1.51500
O717        O  0.99127602  0.50243899  0.52079358    -1.42300
C718        C  0.92088863  0.48162213  0.10034782     1.09200
C719        C  0.52875624  0.07995739  0.41874174     1.09300
C720        C  0.92538053  0.00361913  0.40700189     1.09300
C721        C  0.99923837  0.07770716  0.09388961     1.09200
C722        C  0.49830422  0.28274427  0.27843796     0.02000
C723        C  0.49796545  0.28133766  0.21311669     0.02000
C724        C  0.49960717  0.24754464  0.18393772    -0.18500
C725        C  0.50255569  0.21494284  0.21818464     0.02000
C726        C  0.50519969  0.21611984  0.28296833     0.02000
C727        C  0.50324549  0.24988707  0.31243592    -0.18500
H728        H  0.50485336  0.25057500  0.36229824     0.04000
H729        H  0.49830946  0.24662565  0.13404906     0.04000
C730        C  0.78270526  0.99570783  0.22662134     0.02000
C731        C  0.78082756  0.00806178  0.28802762     0.02000
C732        C  0.74555395  0.01433778  0.31513986    -0.18500
C733        C  0.71275585  0.00885224  0.28183429     0.02000
C734        C  0.71573549  0.99810142  0.21936022     0.02000
C735        C  0.75045023  0.99061969  0.19359980    -0.18500
H736        H  0.75249033  0.98079980  0.14679901     0.04000
H737        H  0.74347589  0.02343752  0.36225334     0.04000
C738        C  0.64066100  0.01952602  0.10013193    -0.20600
C739        C  0.61227749  0.99920613  0.12415560    -0.07100
C740        C  0.62048326  0.47430518  0.17404832     0.13700
C741        C  0.65636478  0.47112382  0.19845714    -0.20600
C742        C  0.68288991  0.99487474  0.17959494    -0.07100
C743        C  0.67570139  0.01831012  0.12799381     0.13700
C744        C  0.70375766  0.04383366  0.10449133    -0.24000
H745        H  0.63495602  0.03790009  0.06119162     0.15000
H746        H  0.66283297  0.45244634  0.23675415     0.15100
C747        C  0.59161190  0.45296863  0.20579300    -0.23900
H748        H  0.69212808  0.06208215  0.06692616     0.05300
H749        H  0.72816084  0.52796404  0.08551664     0.08700
H750        H  0.71283989  0.06131509  0.14225774     0.08500
H751        H  0.57995183  0.43349642  0.17362084     0.08500
H752        H  0.56922552  0.97198073  0.22382625     0.08500
H753        H  0.60352000  0.43689841  0.24570570     0.05300
C754        C  0.67075592  0.98350824  0.35990380    -0.20600
C755        C  0.67610117  0.01016706  0.31422015    -0.07100
C756        C  0.64516014  0.03325006  0.29468257     0.13700
C757        C  0.60954242  0.02651874  0.31625984    -0.20600
C758        C  0.60407421  0.99943695  0.36114545    -0.07100
C759        C  0.63545046  0.97845394  0.38466507     0.13700
C760        C  0.63194754  0.95003124  0.43477957    -0.24000
H761        H  0.69432363  0.96589248  0.37526287     0.15000
H762        H  0.58601690  0.54379299  0.29993129     0.15100
C763        C  0.64886861  0.56542460  0.25189848    -0.23900
H764        H  0.65887649  0.93477462  0.44485743     0.05300
H765        H  0.61193207  0.43003595  0.42053048     0.08500
H766        H  0.62251241  0.96316710  0.47812108     0.08500
H767        H  0.63183099  0.56237070  0.20984818     0.08500
H768        H  0.67793180  0.06884843  0.23844151     0.08500
H769        H  0.63873521  0.59083449  0.27499666     0.05300
C770        C  0.82662430  0.01759076  0.15086772    -0.20600
C771        C  0.81777750  0.99023810  0.19293716    -0.07100
C772        C  0.84077254  0.45776986  0.19856716     0.13700
C773        C  0.87379188  0.45466272  0.16509046    -0.20600
C774        C  0.88361106  0.48304953  0.12591316    -0.07100
C775        C  0.85931789  0.01430335  0.11697535     0.13700
C776        C  0.86746622  0.04367922  0.07070009    -0.24000
H777        H  0.80791073  0.04168793  0.14499593     0.15000
H778        H  0.89254683  0.43064885  0.17109907     0.15100
C779        C  0.83049255  0.42653156  0.23929542    -0.23900
H780        H  0.84548524  0.06624511  0.06973984     0.05300
H781        H  0.86933518  0.03186157  0.02398340     0.08500
H782        H  0.89405152  0.05536010  0.08209222     0.08500
H783        H  0.80286340  0.41769328  0.22557951     0.08500
H784        H  0.82976642  0.43510148  0.28787837     0.08500
H785        H  0.85086975  0.40269487  0.23596459     0.05300
C786        C  0.85991009  0.98801691  0.40208556    -0.20600
C787        C  0.88803266  0.00865824  0.37725222    -0.07100
C788        C  0.87922329  0.53232112  0.32673090     0.13700
C789        C  0.84293302  0.53411850  0.30198294    -0.20600
C790        C  0.81564224  0.01165167  0.32455095    -0.07100
C791        C  0.82419431  0.98894098  0.37646307     0.13700
C792        C  0.79659640  0.96400928  0.40343552    -0.24000
H793        H  0.86621330  0.96980900  0.44105435     0.15000
H794        H  0.83617495  0.55216242  0.26303899     0.15100
C795        C  0.90766623  0.55564039  0.29882922    -0.23900
H796        H  0.80924669  0.94583374  0.44025740     0.05300
H797        H  0.78579509  0.44637513  0.36730582     0.08500
H798        H  0.77325981  0.98031255  0.42446901     0.08500
H799        H  0.93046800  0.53806926  0.27867736     0.08500
H800        H  0.91903112  0.07318927  0.33467209     0.08500
H801        H  0.89537855  0.57367907  0.26160225     0.05300
C802        C  0.96918105  0.16156250  0.18503933    -0.20600
C803        C  0.50194564  0.18001404  0.18512724    -0.07100
C804        C  0.53293836  0.16575417  0.15207510     0.13700
C805        C  0.53063285  0.13284771  0.12069157    -0.20600
C806        C  0.49822319  0.11384760  0.12226735    -0.07100
C807        C  0.96708131  0.12837049  0.15446815     0.13700
C808        C  0.93138750  0.10954864  0.15473715    -0.24000
H809        H  0.94500803  0.17347996  0.20814390     0.15000
H810        H  0.55453741  0.12136399  0.09608110     0.15100
C811        C  0.56855851  0.18488077  0.15078687    -0.23900
H812        H  0.90993621  0.12422300  0.18312636     0.05300
H813        H  0.93618531  0.08136435  0.17354089     0.08500
H814        H  0.92070913  0.10862383  0.10683443     0.08500
H815        H  0.57921108  0.18754554  0.19846386     0.08500
H816        H  0.56370295  0.21244318  0.12945886     0.08500
H817        H  0.59022253  0.16959882  0.12368794     0.05300
C818        C  0.98776412  0.13049836  0.37537359    -0.20600
C819        C  0.52410131  0.11600070  0.38689049    -0.07100
C820        C  0.55426490  0.13605194  0.36727973     0.13700
C821        C  0.54710006  0.16858726  0.33315846    -0.20600
C822        C  0.51074299  0.18232151  0.32059022    -0.07100
C823        C  0.98070632  0.16374533  0.34384688     0.13700
C824        C  0.94093887  0.17824609  0.33688451    -0.24000
H825        H  0.96445612  0.11605396  0.39193431     0.15000
H826        H  0.56996953  0.18361579  0.31645767     0.15100
C827        C  0.59391463  0.12353043  0.38153844    -0.23900
H828        H  0.92489885  0.15809607  0.31221315     0.05300
H829        H  0.93791045  0.20458175  0.31116642     0.08500
H830        H  0.92871182  0.18251815  0.38321966     0.08500
H831        H  0.59996559  0.09564192  0.36421964     0.08500
H832        H  0.59875374  0.12362406  0.43207385     0.08500
H833        H  0.61374145  0.14165856  0.35983917     0.05300
C834        C  0.96700018  0.37086074  0.13491702    -0.20600
C835        C  0.00030466  0.38073301  0.10843933    -0.07100
C836        C  0.53153017  0.35583540  0.10954507     0.13700
C837        C  0.52975548  0.32295231  0.14303933    -0.20600
C838        C  0.49717811  0.31454508  0.17382928    -0.07100
C839        C  0.96480070  0.33760947  0.16638274     0.13700
C840        C  0.92789839  0.32700819  0.19029205    -0.24000
H841        H  0.94267847  0.38962404  0.13168657     0.15000
H842        H  0.55409058  0.30420449  0.14678586     0.15100
C843        C  0.56672518  0.36436343  0.07723523    -0.23900
H844        H  0.90528407  0.34785869  0.17824138     0.05300
H845        H  0.92874883  0.32399380  0.24095079     0.08500
H846        H  0.92096775  0.30072334  0.16990033     0.08500
H847        H  0.57740623  0.38965750  0.09574575     0.08500
H848        H  0.56114385  0.36827423  0.02712520     0.08500
H849        H  0.58859442  0.34192487  0.08332961     0.05300
C850        C  0.51885626  0.34453920  0.30433208    -0.20600
C851        C  0.49323411  0.31777604  0.31250206    -0.07100
C852        C  0.96362919  0.32451694  0.35409171     0.13700
C853        C  0.96085461  0.35729586  0.38654489    -0.20600
C854        C  0.48619605  0.38453258  0.37826404    -0.07100
C855        C  0.51560152  0.37787148  0.33589321     0.13700
C856        C  0.54370763  0.40540469  0.32282417    -0.24000
H857        H  0.54175997  0.33919662  0.27310058     0.15000
H858        H  0.93796927  0.36163311  0.41816882     0.15100
C859        C  0.93341331  0.29852607  0.36405980    -0.23900
H860        H  0.56419802  0.39524208  0.28827546     0.05300
H861        H  0.55921715  0.41088558  0.36552812     0.08500
H862        H  0.52964674  0.43104159  0.30422806     0.08500
H863        H  0.93439982  0.28829914  0.41248000     0.08500
H864        H  0.93527697  0.27487626  0.33299988     0.08500
H865        H  0.90599739  0.31314100  0.35525112     0.05300
O866        O  0.95164940  0.42269968  0.94847398    -0.80400
O867        O  0.56727486  0.03252473  0.56140895    -0.80400
O868        O  0.53690660  0.50145972  0.85619909    -0.80400
O869        O  0.49106373  0.44345250  0.62325126    -0.80400
O870        O  0.56335148  0.99775819  0.94810657    -0.80500
O871        O  0.00684748  0.42677787  0.53144449    -0.80400
O872        O  0.54994899  0.48470858  0.61234438    -0.80400
O873        O  0.50448341  0.44391369  0.91454201    -0.80400
C874        C  0.48008161  0.41906167  0.91411349     1.09300
C875        C  0.57460476  0.50570765  0.59775588     1.09200
C876        C  0.56652313  0.99825996  0.88889866     1.09300
C877        C  0.00152589  0.41868440  0.58688040     1.09200
O878        O  0.93124359  0.45637768  0.56304179    -0.80400
O879        O  0.55667428  0.07153987  0.95291359    -0.80500
O880        O  0.95588940  0.00629365  0.87928129    -0.80400
O881        O  0.00186596  0.04960619  0.62852151    -0.80400
O882        O  0.50102402  0.07546284  0.53609211    -0.80400
O883        O  0.92658862  0.49316152  0.96207165    -0.80400
O884        O  0.94254097  0.00532779  0.61819838    -0.80400
O885        O  0.00238278  0.05771438  0.91616494    -0.80400
Co886      Co  0.96785781  0.46167520  0.99428284     1.51500
Co887      Co  0.52973247  0.03532762  0.49395157     1.51700
Co888      Co  0.50453594  0.00104932  0.92668208     1.51600
Co889      Co  0.99645134  0.49656752  0.61425663     1.51500
O890        O  0.99127676  0.50243946  0.02079212    -1.42300
C891        C  0.92088634  0.48162274  0.60034413     1.09200
C892        C  0.52875779  0.07995774  0.91874566     1.09300
C893        C  0.92538074  0.00362045  0.90700086     1.09300
C894        C  0.99923616  0.07770900  0.59388937     1.09200
C895        C  0.49831312  0.28274466  0.77843767     0.02000
C896        C  0.49797625  0.28133754  0.71311632     0.02000
C897        C  0.49961859  0.24754413  0.68393816    -0.18500
C898        C  0.50256520  0.21494253  0.71818611     0.02000
C899        C  0.50520798  0.21612019  0.78296986     0.02000
C900        C  0.50325399  0.24988771  0.81243645    -0.18500
H901        H  0.50486084  0.25057605  0.86229883     0.04000
H902        H  0.49832189  0.24662466  0.63404950     0.04000
C903        C  0.78270551  0.99571707  0.72661692     0.02000
C904        C  0.78082797  0.00806849  0.78802464     0.02000
C905        C  0.74555433  0.01434204  0.81513803    -0.18500
C906        C  0.71275632  0.00885576  0.78183253     0.02000
C907        C  0.71573607  0.99810737  0.71935724     0.02000
C908        C  0.75045073  0.99062840  0.69359560    -0.18500
H909        H  0.75249098  0.98080958  0.64679399     0.04000
H910        H  0.74347618  0.02344007  0.86225245     0.04000
C911        C  0.64066137  0.01953145  0.60012940    -0.20600
C912        C  0.61227914  0.99920872  0.62415012    -0.07100
C913        C  0.62048601  0.47430741  0.67404305     0.13700
C914        C  0.65636728  0.47112705  0.69845267    -0.20600
C915        C  0.68289085  0.99488030  0.67959159    -0.07100
C916        C  0.67570144  0.01831681  0.62799218     0.13700
C917        C  0.70375641  0.04384266  0.60449261    -0.24000
H918        H  0.63495559  0.03790652  0.56119075     0.15000
H919        H  0.66283599  0.45244899  0.73674872     0.15100
C920        C  0.59161539  0.45296902  0.70578588    -0.23900
H921        H  0.69212599  0.06209201  0.56692922     0.05300
H922        H  0.72816146  0.52797333  0.58551796     0.08700
H923        H  0.71283784  0.06132317  0.64226086     0.08500
H924        H  0.57995618  0.43349719  0.67361217     0.08500
H925        H  0.56922853  0.97197538  0.72381686     0.08500
H926        H  0.60352381  0.43689808  0.74569755     0.05300
C927        C  0.67075801  0.98350907  0.85990282    -0.20600
C928        C  0.67610183  0.01016819  0.81421887    -0.07100
C929        C  0.64515998  0.03325056  0.79468300     0.13700
C930        C  0.60954298  0.02651849  0.81626206    -0.20600
C931        C  0.60407609  0.99943670  0.86114810    -0.07100
C932        C  0.63545312  0.97845427  0.88466637     0.13700
C933        C  0.63195171  0.95003206  0.93478216    -0.24000
H934        H  0.69432638  0.96589393  0.87526094     0.15000
H935        H  0.58601662  0.54379340  0.79993448     0.15100
C936        C  0.64886685  0.56542616  0.75189964    -0.23900
H937        H  0.65888119  0.93477641  0.94485979     0.05300
H938        H  0.61193479  0.43003636  0.92053340     0.08500
H939        H  0.62251657  0.96316822  0.97812337     0.08500
H940        H  0.63182894  0.56237198  0.70984970     0.08500
H941        H  0.67792960  0.06885095  0.73844229     0.08500
H942        H  0.63873285  0.59083564  0.77499848     0.05300
C943        C  0.82662484  0.01759861  0.65086232    -0.20600
C944        C  0.81777731  0.99024657  0.69293258    -0.07100
C945        C  0.84077029  0.45777417  0.69856366     0.13700
C946        C  0.87378837  0.45466468  0.66508423    -0.20600
C947        C  0.88360848  0.48305092  0.62590670    -0.07100
C948        C  0.85931701  0.01430844  0.61696665     0.13700
C949        C  0.86746594  0.04368259  0.57068839    -0.24000
H950        H  0.80791275  0.04169696  0.64499169     0.15000
H951        H  0.89254194  0.43064978  0.67109178     0.15100
C952        C  0.83048920  0.42653685  0.73929315    -0.23900
H953        H  0.84548618  0.06624959  0.56972820     0.05300
H954        H  0.86933267  0.03186363  0.52397246     0.08500
H955        H  0.89405244  0.05536233  0.58207692     0.08500
H956        H  0.80285864  0.41770084  0.72558011     0.08500
H957        H  0.82976565  0.43510689  0.78787609     0.08500
H958        H  0.85086441  0.40269866  0.73596043     0.05300
C959        C  0.85991039  0.98801873  0.90208114    -0.20600
C960        C  0.88803315  0.00866074  0.87725057    -0.07100
C961        C  0.87922492  0.53232474  0.82673028     0.13700
C962        C  0.84293452  0.53412329  0.80198239    -0.20600
C963        C  0.81564281  0.01165673  0.82454848    -0.07100
C964        C  0.82419463  0.98894414  0.87645850     0.13700
C965        C  0.79659654  0.96401180  0.90342853    -0.24000
H966        H  0.86621339  0.96980926  0.94104813     0.15000
H967        H  0.83617703  0.55216732  0.76303839     0.15100
C968        C  0.90766863  0.55564315  0.79882874    -0.23900
H969        H  0.80924691  0.94583452  0.94024807     0.05300
H970        H  0.78579404  0.44638163  0.86730481     0.08500
H971        H  0.77326047  0.98031444  0.92446461     0.08500
H972        H  0.93046958  0.53807146  0.77867593     0.08500
H973        H  0.91903215  0.07319290  0.83467887     0.08500
H974        H  0.89538126  0.57368273  0.76160267     0.05300
C975        C  0.96918291  0.16156408  0.68504191    -0.20600
C976        C  0.50195341  0.18001332  0.68512987    -0.07100
C977        C  0.53294634  0.16575031  0.65208169     0.13700
C978        C  0.53063867  0.13284457  0.62069667    -0.20600
C979        C  0.49822694  0.11384757  0.62226859    -0.07100
C980        C  0.96708141  0.12837253  0.65447006     0.13700
C981        C  0.93138718  0.10955125  0.65474221    -0.24000
H982        H  0.94501100  0.17348167  0.70814863     0.15000
H983        H  0.55454312  0.12135884  0.59608842     0.15100
C984        C  0.56856911  0.18487254  0.65079975    -0.23900
H985        H  0.90993711  0.12422590  0.68313334     0.05300
H986        H  0.93618504  0.08136687  0.67354536     0.08500
H987        H  0.92070706  0.10862659  0.60684047     0.08500
H988        H  0.57921970  0.18753511  0.69847854     0.08500
H989        H  0.56371782  0.21243575  0.62947294     0.08500
H990        H  0.59023279  0.16958865  0.62370315     0.05300
C991        C  0.98776788  0.13049579  0.87536703    -0.20600
C992        C  0.52410406  0.11600160  0.88689546    -0.07100
C993        C  0.55426868  0.13605232  0.86728758     0.13700
C994        C  0.54710563  0.16858739  0.83316495    -0.20600
C995        C  0.51074921  0.18232221  0.82059313    -0.07100
C996        C  0.98071041  0.16374338  0.84384264     0.13700
C997        C  0.94094291  0.17824371  0.83687961    -0.24000
H998        H  0.96445963  0.11605031  0.89192347     0.15000
H999        H  0.56997591  0.18361532  0.81646614     0.15100
C1000       C  0.59391779  0.12353070  0.88155119    -0.23900
H1001       H  0.92490364  0.15809434  0.81220538     0.05300
H1002       H  0.93791460  0.20458045  0.81116464     0.08500
H1003       H  0.92871496  0.18251368  0.88321465     0.08500
H1004       H  0.59996966  0.09564214  0.86423262     0.08500
H1005       H  0.59875450  0.12362429  0.93208725     0.08500
H1006       H  0.61374559  0.14165887  0.85985494     0.05300
C1007       C  0.96700097  0.37086289  0.63493029    -0.20600
C1008       C  0.00030403  0.38073478  0.60844689    -0.07100
C1009       C  0.53153752  0.35583664  0.60954248     0.13700
C1010       C  0.52976472  0.32295366  0.64303813    -0.20600
C1011       C  0.49718785  0.31454494  0.67382827    -0.07100
C1012       C  0.96480260  0.33761093  0.66639420     0.13700
C1013       C  0.92790116  0.32700938  0.69030709    -0.24000
H1014       H  0.94267951  0.38962653  0.63170449     0.15000
H1015       H  0.55410059  0.30420695  0.64678468     0.15100
C1016       C  0.56673134  0.36436521  0.57722938    -0.23900
H1017       H  0.90528650  0.34786014  0.67825981     0.05300
H1018       H  0.92875339  0.32399404  0.74096553     0.08500
H1019       H  0.92096952  0.30072495  0.66991495     0.08500
H1020       H  0.57741199  0.38966021  0.59573701     0.08500
H1021       H  0.56114857  0.36827459  0.52711947     0.08500
H1022       H  0.58860147  0.34192754  0.58332371     0.05300
C1023       C  0.51886307  0.34454024  0.80433325    -0.20600
C1024       C  0.49324120  0.31777660  0.81250125    -0.07100
C1025       C  0.96363397  0.32451429  0.85409947     0.13700
C1026       C  0.96085839  0.35729332  0.88655237    -0.20600
C1027       C  0.48620002  0.38453321  0.87826301    -0.07100
C1028       C  0.51560737  0.37787216  0.83589557     0.13700
C1029       C  0.54371526  0.40540458  0.82283281    -0.24000
H1030       H  0.54176762  0.33919802  0.77310363     0.15000
H1031       H  0.93797441  0.36162909  0.91817959     0.15100
C1032       C  0.93341933  0.29852214  0.86406850    -0.23900
H1033       H  0.56420800  0.39524175  0.78828796     0.05300
H1034       H  0.55922186  0.41088450  0.86554008     0.08500
H1035       H  0.52965643  0.43104206  0.80423504     0.08500
H1036       H  0.93440731  0.28829429  0.91248815     0.08500
H1037       H  0.93528289  0.27487304  0.83300704     0.08500
H1038       H  0.90600277  0.31313632  0.85526224     0.05300
O1039       O  0.95165198  0.92267773  0.44849699    -0.80400
O1040       O  0.56730637  0.53249800  0.06142600    -0.80400
O1041       O  0.53688108  0.00146966  0.35618448    -0.80400
O1042       O  0.49105976  0.94345410  0.12325514    -0.80400
O1043       O  0.56336997  0.49773810  0.44811928    -0.80500
O1044       O  0.00684911  0.92678300  0.03145131    -0.80400
O1045       O  0.54993463  0.98472249  0.11232887    -0.80400
O1046       O  0.50446654  0.94391428  0.41453545    -0.80400
C1047       C  0.48007257  0.91905439  0.41411872     1.09300
C1048       C  0.57458132  0.00573257  0.09774554     1.09200
C1049       C  0.56654309  0.49823668  0.38891225     1.09300
C1050       C  0.00152899  0.91868870  0.08688730     1.09200
O1051       O  0.93123473  0.95637069  0.06305476    -0.80400
O1052       O  0.55671512  0.57152403  0.45291945    -0.80500
O1053       O  0.95591345  0.50628631  0.37927436    -0.80400
O1054       O  0.00189126  0.54959575  0.12852691    -0.80400
O1055       O  0.50106881  0.57545912  0.03610815    -0.80400
O1056       O  0.92656448  0.99313246  0.46206655    -0.80400
O1057       O  0.94255859  0.50532576  0.11820340    -0.80400
O1058       O  0.00241279  0.55770882  0.41616918    -0.80400
Co1059     Co  0.96784677  0.96166517  0.49429034     1.51500
Co1060     Co  0.52976479  0.53531633  0.99396623     1.51700
Co1061     Co  0.50455676  0.50104678  0.42668642     1.51600
Co1062     Co  0.99643925  0.99657203  0.11425031     1.51500
O1063       O  0.99125404  0.00244146  0.52078818    -1.42300
C1064       C  0.92087478  0.98162048  0.10034827     1.09200
C1065       C  0.52879844  0.57994936  0.41875479     1.09300
C1066       C  0.92540425  0.50362636  0.40699827     1.09300
C1067       C  0.99926809  0.57770031  0.09389781     1.09200
C1068       C  0.49833936  0.78273992  0.27844764     0.02000
C1069       C  0.49800387  0.78133345  0.21312599     0.02000
C1070       C  0.49965710  0.74753958  0.18394858    -0.18500
C1071       C  0.50261200  0.71493803  0.21819733     0.02000
C1072       C  0.50525399  0.71611598  0.28298146     0.02000
C1073       C  0.50329037  0.74988376  0.31244687    -0.18500
H1074       H  0.50489592  0.75057268  0.36230945     0.04000
H1075       H  0.49835994  0.74661959  0.13405998     0.04000
C1076       C  0.78272607  0.49565498  0.22664092     0.02000
C1077       C  0.78084819  0.50801101  0.28804561     0.02000
C1078       C  0.74557502  0.51427793  0.31516080    -0.18500
C1079       C  0.71277838  0.50878568  0.28185650     0.02000
C1080       C  0.71575726  0.49803296  0.21938278     0.02000
C1081       C  0.75047248  0.49055388  0.19362432    -0.18500
H1082       H  0.75251433  0.48073055  0.14682579     0.04000
H1083       H  0.74349572  0.52338061  0.36227262     0.04000
C1084       C  0.64069122  0.51947005  0.10013998    -0.20600
C1085       C  0.61229884  0.49916355  0.12416727    -0.07100
C1086       C  0.62046956  0.97434999  0.17403672     0.13700
C1087       C  0.65635207  0.97117755  0.19844002    -0.20600
C1088       C  0.68291166  0.49481117  0.17961174    -0.07100
C1089       C  0.67573219  0.51824309  0.12800227     0.13700
C1090       C  0.70379870  0.54375281  0.10448996    -0.24000
H1091       H  0.63499317  0.53784296  0.06119585     0.15000
H1092       H  0.66282737  0.95249966  0.23673368     0.15100
C1093       C  0.59160474  0.95300778  0.20578839    -0.23900
H1094       H  0.69217480  0.56200241  0.06692188     0.05300
H1095       H  0.72812696  0.02805555  0.08551922     0.08700
H1096       H  0.71288997  0.56123342  0.14225090     0.08500
H1097       H  0.57995024  0.93352897  0.17362185     0.08500
H1098       H  0.56923762  0.47194549  0.22383557     0.08500
H1099       H  0.60351651  0.93694395  0.24570567     0.05300
C1100       C  0.67077440  0.48345332  0.35993009    -0.20600
C1101       C  0.67612493  0.51010728  0.31424040    -0.07100
C1102       C  0.64519034  0.53319665  0.29469903     0.13700
C1103       C  0.60957151  0.52647622  0.31627783    -0.20600
C1104       C  0.60409678  0.49939891  0.36116687    -0.07100
C1105       C  0.63546738  0.47840951  0.38469256     0.13700
C1106       C  0.63195684  0.44999214  0.43481400    -0.24000
H1107       H  0.69433866  0.46583391  0.37529303     0.15000
H1108       H  0.58598352  0.04383017  0.29991541     0.15100
C1109       C  0.64883054  0.06548266  0.25188907    -0.23900
H1110       H  0.65888269  0.43473117  0.44489777     0.05300
H1111       H  0.61192666  0.93007216  0.42049245     0.08500
H1112       H  0.62252287  0.46313335  0.47815153     0.08500
H1113       H  0.63179480  0.06242767  0.20983692     0.08500
H1114       H  0.67797083  0.56878227  0.23844752     0.08500
H1115       H  0.63869026  0.09088874  0.27499186     0.05300
C1116       C  0.82662821  0.51755603  0.15087767    -0.20600
C1117       C  0.81779642  0.49019970  0.19295128    -0.07100
C1118       C  0.84073775  0.95779684  0.19854597     0.13700
C1119       C  0.87375742  0.95467482  0.16506986    -0.20600
C1120       C  0.88359234  0.98305819  0.12589881    -0.07100
C1121       C  0.85932283  0.51428394  0.11698684     0.13700
C1122       C  0.86745880  0.54366469  0.07071316    -0.24000
H1123       H  0.80790311  0.54164475  0.14500412     0.15000
H1124       H  0.89250095  0.93065224  0.17107512     0.15100
C1125       C  0.83044127  0.92656202  0.23926722    -0.23900
H1126       H  0.84546683  0.56622024  0.06974941     0.05300
H1127       H  0.86933679  0.53184772  0.02399660     0.08500
H1128       H  0.89403656  0.55535922  0.08211158     0.08500
H1129       H  0.80280623  0.91773941  0.22554973     0.08500
H1130       H  0.82972095  0.93512873  0.28785192     0.08500
H1131       H  0.85080631  0.90271589  0.23593091     0.05300
C1132       C  0.85994219  0.48800194  0.40209396    -0.20600
C1133       C  0.88805654  0.50864847  0.37724701    -0.07100
C1134       C  0.87920798  0.03234140  0.32674511     0.13700
C1135       C  0.84291983  0.03414994  0.30198727    -0.20600
C1136       C  0.81566320  0.51161562  0.32456157    -0.07100
C1137       C  0.82422509  0.48891323  0.37648013     0.13700
C1138       C  0.79663686  0.46397750  0.40347031    -0.24000
H1139       H  0.86625307  0.46980050  0.44106857     0.15000
H1140       H  0.83616924  0.05219943  0.26304718     0.15100
C1141       C  0.90765764  0.05566084  0.29886313    -0.23900
H1142       H  0.80929505  0.44580978  0.44029588     0.05300
H1143       H  0.78575259  0.94641500  0.36726107     0.08500
H1144       H  0.77329840  0.48027794  0.42450426     0.08500
H1145       H  0.93045742  0.03809027  0.27870439     0.08500
H1146       H  0.91903854  0.57317886  0.33462467     0.08500
H1147       H  0.89537610  0.07370988  0.26164471     0.05300
C1148       C  0.96921577  0.66155766  0.18504592    -0.20600
C1149       C  0.50199920  0.68000847  0.18514307    -0.07100
C1150       C  0.53298653  0.66574889  0.15207742     0.13700
C1151       C  0.53067563  0.63284309  0.12069342    -0.20600
C1152       C  0.49826694  0.61384173  0.12228697    -0.07100
C1153       C  0.96711528  0.62836321  0.15448202     0.13700
C1154       C  0.93142337  0.60953796  0.15476477    -0.24000
H1155       H  0.94504359  0.67347646  0.20815076     0.15000
H1156       H  0.55457552  0.62136046  0.09607029     0.15100
C1157       C  0.56860714  0.68487418  0.15077714    -0.23900
H1158       H  0.90997276  0.62421391  0.18315321     0.05300
H1159       H  0.93622567  0.58135631  0.17357772     0.08500
H1160       H  0.92074198  0.60860483  0.10686489     0.08500
H1161       H  0.57926586  0.68753728  0.19845081     0.08500
H1162       H  0.56374983  0.71243719  0.12945220     0.08500
H1163       H  0.59026703  0.66959206  0.12366989     0.05300
C1164       C  0.98780690  0.63049347  0.37537902    -0.20600
C1165       C  0.52414881  0.61599631  0.38691129    -0.07100
C1166       C  0.55431459  0.63604171  0.36729115     0.13700
C1167       C  0.54715254  0.66857797  0.33316923    -0.20600
C1168       C  0.51079626  0.68231811  0.32060750    -0.07100
C1169       C  0.98075218  0.66374000  0.34384937     0.13700
C1170       C  0.94098556  0.67824292  0.33688561    -0.24000
H1171       H  0.96449716  0.61605190  0.39194097     0.15000
H1172       H  0.57002345  0.68360155  0.31646067     0.15100
C1173       C  0.59396348  0.62351144  0.38153763    -0.23900
H1174       H  0.92494401  0.65809237  0.31221843     0.05300
H1175       H  0.93795876  0.70457697  0.31116266     0.08500
H1176       H  0.92875896  0.68251859  0.38322016     0.08500
H1177       H  0.60000628  0.59562260  0.36421362     0.08500
H1178       H  0.59880771  0.62360162  0.43207199     0.08500
H1179       H  0.61379215  0.64163623  0.35983495     0.05300
C1180       C  0.96701848  0.87086033  0.13495163    -0.20600
C1181       C  0.00031657  0.88073777  0.10845701    -0.07100
C1182       C  0.53154982  0.85584277  0.10955464     0.13700
C1183       C  0.52978272  0.82295796  0.14304763    -0.20600
C1184       C  0.49720798  0.81454221  0.17383778    -0.07100
C1185       C  0.96482700  0.83760424  0.16640646     0.13700
C1186       C  0.92792899  0.82699469  0.19032224    -0.24000
H1187       H  0.94269473  0.88962188  0.13173919     0.15000
H1188       H  0.55412176  0.80421508  0.14679237     0.15100
C1189       C  0.56674207  0.86437823  0.07724316    -0.23900
H1190       H  0.90531150  0.84784565  0.17829076     0.05300
H1191       H  0.92878571  0.82396872  0.24097959     0.08500
H1192       H  0.92099824  0.80071368  0.16991634     0.08500
H1193       H  0.57741742  0.88967531  0.09575247     0.08500
H1194       H  0.56115940  0.86828705  0.02713316     0.08500
H1195       H  0.58861618  0.84194425  0.08333781     0.05300
C1196       C  0.51886622  0.84454501  0.30433077    -0.20600
C1197       C  0.49325719  0.81777071  0.31251099    -0.07100
C1198       C  0.96367143  0.82449151  0.35412308     0.13700
C1199       C  0.96088658  0.85726927  0.38658017    -0.20600
C1200       C  0.48619799  0.88452702  0.37826896    -0.07100
C1201       C  0.51560025  0.87787766  0.33588814     0.13700
C1202       C  0.54369122  0.90542397  0.32280355    -0.24000
H1203       H  0.54176886  0.83921100  0.27309417     0.15000
H1204       H  0.93800882  0.86159245  0.41822324     0.15100
C1205       C  0.93347277  0.79848362  0.36410954    -0.23900
H1206       H  0.56417943  0.89527087  0.28824409     0.05300
H1207       H  0.55920558  0.91091187  0.36549951     0.08500
H1208       H  0.52961610  0.93105543  0.30421312     0.08500
H1209       H  0.93448093  0.78824900  0.41252523     0.08500
H1210       H  0.93533602  0.77483985  0.33303711     0.08500
H1211       H  0.90604768  0.81308690  0.35533182     0.05300
O1212       O  0.95165061  0.92267776  0.94849542    -0.80400
O1213       O  0.56730766  0.53249966  0.56142181    -0.80400
O1214       O  0.53688328  0.00147039  0.85618746    -0.80400
O1215       O  0.49106287  0.94345363  0.62325232    -0.80400
O1216       O  0.56337070  0.49773748  0.94812187    -0.80500
O1217       O  0.00684832  0.92678349  0.53145740    -0.80400
O1218       O  0.54993693  0.98472281  0.61232273    -0.80400
O1219       O  0.50447033  0.94391491  0.91453784    -0.80400
C1220       C  0.48007697  0.91905455  0.91411854     1.09300
C1221       C  0.57458279  0.00573397  0.59774015     1.09200
C1222       C  0.56654405  0.49823674  0.88891480     1.09300
C1223       C  0.00152722  0.91869080  0.58689403     1.09200
O1224       O  0.93123397  0.95637138  0.56305417    -0.80400
O1225       O  0.55671538  0.57152344  0.95292408    -0.80500
O1226       O  0.95591467  0.50628778  0.87927375    -0.80400
O1227       O  0.00188756  0.54959734  0.62852763    -0.80400
O1228       O  0.50106988  0.57546036  0.53610656    -0.80400
O1229       O  0.92656404  0.99313270  0.96206518    -0.80400
O1230       O  0.94255558  0.50532691  0.61819980    -0.80400
O1231       O  0.00241582  0.55770845  0.91616792    -0.80400
Co1232     Co  0.96784632  0.96166512  0.99428808     1.51500
Co1233     Co  0.52976501  0.53531731  0.49396367     1.51700
Co1234     Co  0.50455742  0.50104753  0.92668826     1.51600
Co1235     Co  0.99643621  0.99657476  0.61425342     1.51500
O1236       O  0.99125408  0.00244131  0.02078592    -1.42300
C1237       C  0.92087245  0.98162288  0.60034318     1.09200
C1238       C  0.52879907  0.57994997  0.91875924     1.09300
C1239       C  0.92540526  0.50362827  0.90699749     1.09300
C1240       C  0.99926534  0.57770122  0.59389710     1.09200
C1241       C  0.49835017  0.78274057  0.77844652     0.02000
C1242       C  0.49801608  0.78133349  0.71312475     0.02000
C1243       C  0.49966981  0.74753919  0.68394836    -0.18500
C1244       C  0.50262257  0.71493790  0.71819825     0.02000
C1245       C  0.50526300  0.71611653  0.78298248     0.02000
C1246       C  0.50330028  0.74988465  0.81244672    -0.18500
H1247       H  0.50490481  0.75057402  0.86230917     0.04000
H1248       H  0.49837353  0.74661870  0.63405973     0.04000
C1249       C  0.78272658  0.49566197  0.72663954     0.02000
C1250       C  0.78084867  0.50801718  0.78804467     0.02000
C1251       C  0.74557526  0.51428255  0.81516022    -0.18500
C1252       C  0.71277877  0.50878934  0.78185583     0.02000
C1253       C  0.71575810  0.49803809  0.71938145     0.02000
C1254       C  0.75047331  0.49056049  0.69362273    -0.18500
H1255       H  0.75251539  0.48073773  0.64682389     0.04000
H1256       H  0.74349566  0.52338452  0.86227225     0.04000
C1257       C  0.64069247  0.51947515  0.60013832    -0.20600
C1258       C  0.61230098  0.49916652  0.62416323    -0.07100
C1259       C  0.62047243  0.97435121  0.67402895     0.13700
C1260       C  0.65635457  0.97118077  0.69843376    -0.20600
C1261       C  0.68291307  0.49481607  0.67960961    -0.07100
C1262       C  0.67573312  0.51824906  0.62800165     0.13700
C1263       C  0.70379871  0.54376066  0.60449226    -0.24000
H1264       H  0.63499389  0.53784888  0.56119555     0.15000
H1265       H  0.66283074  0.95250206  0.73672620     0.15100
C1266       C  0.59160917  0.95300503  0.70577648    -0.23900
H1267       H  0.69217428  0.56201112  0.56692580     0.05300
H1268       H  0.72812642  0.02806641  0.58551897     0.08700
H1269       H  0.71288924  0.56124037  0.64225506     0.08500
H1270       H  0.57995649  0.93352699  0.67360641     0.08500
H1271       H  0.56924049  0.47194477  0.72382955     0.08500
H1272       H  0.60352188  0.93693976  0.74569137     0.05300
C1273       C  0.67077550  0.48345424  0.85992892    -0.20600
C1274       C  0.67612519  0.51010887  0.81423974    -0.07100
C1275       C  0.64518993  0.53319776  0.79469973     0.13700
C1276       C  0.60957155  0.52647668  0.81627974    -0.20600
C1277       C  0.60409769  0.49939920  0.86116886    -0.07100
C1278       C  0.63546884  0.47841000  0.88469307     0.13700
C1279       C  0.63195939  0.44999295  0.93481538    -0.24000
H1280       H  0.69434013  0.46583512  0.87529088     0.15000
H1281       H  0.58598354  0.04382987  0.79991917     0.15100
C1282       C  0.64882863  0.06548383  0.75189040    -0.23900
H1283       H  0.65888558  0.43473243  0.94489851     0.05300
H1284       H  0.61193138  0.93007208  0.92049667     0.08500
H1285       H  0.62252579  0.46313448  0.97815291     0.08500
H1286       H  0.63179257  0.06242864  0.70983872     0.08500
H1287       H  0.67796874  0.56878486  0.73844805     0.08500
H1288       H  0.63868755  0.09088926  0.77499430     0.05300
C1289       C  0.82662887  0.51756122  0.65087524    -0.20600
C1290       C  0.81779659  0.49020566  0.69295000    -0.07100
C1291       C  0.84073454  0.95780323  0.69853789     0.13700
C1292       C  0.87375299  0.95467884  0.66505959    -0.20600
C1293       C  0.88358940  0.98306177  0.62588941    -0.07100
C1294       C  0.85932213  0.51428672  0.61698139     0.13700
C1295       C  0.86745864  0.54366631  0.57070566    -0.24000
H1296       H  0.80790507  0.54165097  0.64500266     0.15000
H1297       H  0.89249495  0.93065493  0.67106352     0.15100
C1298       C  0.83043636  0.92656879  0.73925843    -0.23900
H1299       H  0.84546771  0.56622280  0.56974219     0.05300
H1300       H  0.86933490  0.53184855  0.52398960     0.08500
H1301       H  0.89403734  0.55535999  0.58210157     0.08500
H1302       H  0.80279952  0.91774945  0.72554387     0.08500
H1303       H  0.82971943  0.93513437  0.78784367     0.08500
H1304       H  0.85079870  0.90272069  0.73591820     0.05300
C1305       C  0.85994249  0.48800617  0.90209310    -0.20600
C1306       C  0.88805756  0.50865176  0.87724620    -0.07100
C1307       C  0.87920886  0.03234573  0.82674565     0.13700
C1308       C  0.84292086  0.03415524  0.80198695    -0.20600
C1309       C  0.81566386  0.51162126  0.82456099    -0.07100
C1310       C  0.82422530  0.48891858  0.87647942     0.13700
C1311       C  0.79663655  0.46398339  0.90346950    -0.24000
H1312       H  0.86625286  0.46980449  0.94106751     0.15000
H1313       H  0.83617072  0.05220583  0.76304808     0.15100
C1314       C  0.90765876  0.05566620  0.79886726    -0.23900
H1315       H  0.80929454  0.44581499  0.94029440     0.05300
H1316       H  0.78575203  0.94641920  0.86725227     0.08500
H1317       H  0.77329874  0.48028418  0.92450449     0.08500
H1318       H  0.93045854  0.03809648  0.77870669     0.08500
H1319       H  0.91904189  0.57318079  0.83462453     0.08500
H1320       H  0.89537739  0.07371704  0.76165115     0.05300
C1321       C  0.96921582  0.66155989  0.68504325    -0.20600
C1322       C  0.50200813  0.68000802  0.68514508    -0.07100
C1323       C  0.53299557  0.66574576  0.65208256     0.13700
C1324       C  0.53068252  0.63284073  0.62069703    -0.20600
C1325       C  0.49827191  0.61384223  0.62228696    -0.07100
C1326       C  0.96711383  0.62836565  0.65447933     0.13700
C1327       C  0.93142094  0.60954194  0.65476171    -0.24000
H1328       H  0.94504401  0.67347963  0.70814781     0.15000
H1329       H  0.55458241  0.62135623  0.59607561     0.15100
C1330       C  0.56861858  0.68486719  0.65078800    -0.23900
H1331       H  0.90997084  0.62421881  0.68314981     0.05300
H1332       H  0.93622200  0.58136017  0.67357465     0.08500
H1333       H  0.92073953  0.60860896  0.60686175     0.08500
H1334       H  0.57927566  0.68752810  0.69846316     0.08500
H1335       H  0.56376518  0.71243096  0.62946447     0.08500
H1336       H  0.59027818  0.66958337  0.62368253     0.05300
C1337       C  0.98781088  0.63049049  0.87537074    -0.20600
C1338       C  0.52415100  0.61599738  0.88691645    -0.07100
C1339       C  0.55431808  0.63604177  0.86729853     0.13700
C1340       C  0.54715807  0.66857772  0.83317515    -0.20600
C1341       C  0.51080269  0.68231905  0.82061022    -0.07100
C1342       C  0.98075629  0.66373702  0.84384170     0.13700
C1343       C  0.94098944  0.67823861  0.83687474    -0.24000
H1344       H  0.96450080  0.61604780  0.89192852     0.15000
H1345       H  0.57003017  0.68360037  0.81646782     0.15100
C1346       C  0.59396633  0.62351086  0.88154911    -0.23900
H1347       H  0.92494950  0.65808791  0.81220476     0.05300
H1348       H  0.93796252  0.70457325  0.81115376     0.08500
H1349       H  0.92876098  0.68251268  0.88320839     0.08500
H1350       H  0.60000953  0.59562193  0.86422538     0.08500
H1351       H  0.59880868  0.62360107  0.93208393     0.08500
H1352       H  0.61379616  0.64163534  0.85984880     0.05300
C1353       C  0.96701886  0.87086246  0.63496422    -0.20600
C1354       C  0.00031609  0.88074044  0.60846702    -0.07100
C1355       C  0.53155575  0.85584273  0.60954508     0.13700
C1356       C  0.52979117  0.82295809  0.64303991    -0.20600
C1357       C  0.49721821  0.81454202  0.67383538    -0.07100
C1358       C  0.96482813  0.83760534  0.66641609     0.13700
C1359       C  0.92793060  0.82699452  0.69033231    -0.24000
H1360       H  0.94269488  0.88962399  0.63175451     0.15000
H1361       H  0.55413055  0.80421564  0.64678139     0.15100
C1362       C  0.56674557  0.86437806  0.57722590    -0.23900
H1363       H  0.90531282  0.84784586  0.67830424     0.05300
H1364       H  0.92878807  0.82396631  0.74098929     0.08500
H1365       H  0.92099958  0.80071441  0.66992349     0.08500
H1366       H  0.57742233  0.88967528  0.59573219     0.08500
H1367       H  0.56115912  0.86828661  0.52711692     0.08500
H1368       H  0.58862008  0.84194408  0.58331646     0.05300
C1369       C  0.51887500  0.84454653  0.80433100    -0.20600
C1370       C  0.49326650  0.81777148  0.81250960    -0.07100
C1371       C  0.96367492  0.82448830  0.85412952     0.13700
C1372       C  0.96088895  0.85726632  0.88658609    -0.20600
C1373       C  0.48620454  0.88452737  0.87826883    -0.07100
C1374       C  0.51560834  0.87787853  0.83589053     0.13700
C1375       C  0.54370082  0.90542433  0.82281228    -0.24000
H1376       H  0.54177809  0.83921331  0.77309499     0.15000
H1377       H  0.93801244  0.86158823  0.91823178     0.15100
C1378       C  0.93347762  0.79847897  0.86411713    -0.23900
H1379       H  0.56419126  0.89527121  0.78825635     0.05300
H1380       H  0.55921245  0.91091120  0.86551142     0.08500
H1381       H  0.52962752  0.93105633  0.80422062     0.08500
H1382       H  0.93448688  0.78824415  0.91253260     0.08500
H1383       H  0.93534140  0.77483537  0.83304433     0.08500
H1384       H  0.90605179  0.81308110  0.85534061     0.05300
loop_ 
_geom_bond_atom_site_label_1 
_geom_bond_atom_site_label_2 
_geom_bond_distance 
_geom_bond_site_symmetry_2 
_ccdc_geom_bond_type 
O1          Co21   1.877       .  S
O1          C701   1.275       .  A
O2          Co22   1.987   1_554  S
O2          C356   1.265       .  A
O3         Co369   1.932       .  S
O3          C357   1.280       .  A
O4         Co716   1.979       .  S
O4          C704   1.255   1_655  A
O5         Co195   2.053   1_565  S
O5           C11   1.291       .  A
O6         Co194   2.001   1_554  S
O6           C12   1.254       .  A
O7         Co716   1.956   1_455  S
O7           C10   1.254       .  A
O8         Co369   2.118       .  S
O8            C9   1.309   1_455  A
C9          O693   1.275       .  A
C9          C162   1.503       .  S
C10         O348   1.265       .  A
C10         C393   1.479       .  S
C11         O349   1.280   1_565  A
C11          C66   1.492       .  S
C12         O696   1.255       .  A
C12         C143   1.467       .  S
O13        Co194   2.016   1_554  S
O13          C26   1.279       .  A
O14        Co195   1.911       .  S
O14          C27   1.268       .  A
O15        Co715   2.029       .  S
O15          C28   1.268       .  A
O16        Co370   1.998   1_545  S
O16          C29   1.266       .  A
O17         Co22   1.986   1_554  S
O17         C721   1.260   1_455  A
O18         Co21   1.948       .  S
O18         C374   1.250       .  A
O19        Co370   1.957   1_545  S
O19         C372   1.271   1_545  A
O20        Co715   2.086       .  S
O20         C719   1.296       .  A
Co21        O179   2.001       .  S
Co21        O186   2.016       .  S
Co21         O25   1.863       .  S
Co22        O178   2.052   1_545  S
Co22        O187   1.911       .  S
Co22       O1236   1.984   1_456  S
Co23        O349   1.932       .  S
Co23        O354   2.118   1_545  S
Co23        O707   2.029   1_455  S
Co23        O712   2.086       .  S
Co23       O1063   2.102   1_455  S
Co24        O696   1.979       .  S
Co24        O699   1.956       .  S
Co24        O362   1.998       .  S
Co24        O365   1.957       .  S
Co24        O198   2.043       .  S
O25       Co1233   1.984       .  S
O25       Co1061   2.102       .  S
O25        Co197   2.043       .  S
C26         O365   1.271       .  A
C26          C82   1.459       .  S
C27         O712   1.296       .  A
C27         C127   1.483       .  S
C28         O364   1.250   1_545  A
C28          C95   1.493       .  S
C29         O709   1.260       .  A
C29         C806   1.470       .  S
C30         C159   1.495       .  S
C30          C31   1.419       .  A
C30          C35   1.406   1_655  A
C31         C146   1.476       .  S
C31          C32   1.400       .  A
C32          C33   1.397   1_655  A
C32          H37   1.085       .  S
C33         C111   1.480       .  S
C33          C34   1.410       .  A
C34         C130   1.477       .  S
C34          C35   1.402       .  A
C35          H36   1.084       .  S
C38          C79   1.472       .  S
C38          C39   1.415   1_565  A
C38          C43   1.389       .  A
C39          C98   1.497       .  S
C39          C40   1.415       .  A
C40          C41   1.412       .  A
C40          H45   1.082       .  S
C41          C63   1.502       .  S
C41          C42   1.421   1_545  A
C42          C50   1.476       .  S
C42          C43   1.390       .  A
C43          H44   1.084       .  S
C46          C47   1.405   1_545  A
C46          C51   1.398       .  A
C46          H53   1.084       .  S
C47         C356   1.479   1_565  S
C47         C394   1.423       .  A
C48          C49   1.396       .  A
C48         C393   1.423       .  A
C48          C55   1.508       .  S
C49         C396   1.395       .  A
C49          H54   1.084       .  S
C50          C51   1.415   1_565  A
C50         C395   1.395       .  A
C51          C52   1.510       .  S
C52          H56   1.111       .  S
C52          H58   1.110       .  S
C52         H403   1.108       .  S
C55          H59   1.107       .  S
C55          H61   1.110       .  S
C55         H406   1.111       .  S
H57         C398   1.108       .  S
H60         C401   1.111       .  S
C62          C63   1.406   1_565  A
C62          C67   1.410       .  A
C62          H69   1.084       .  S
C63          C64   1.418       .  A
C64          C65   1.408       .  A
C64         C417   1.506       .  S
C65          C66   1.405   1_545  A
C65         H416   1.084       .  S
C66          C67   1.418       .  A
C67          C68   1.507       .  S
C68          H72   1.111       .  S
C68          H74   1.109       .  S
C68         H419   1.109       .  S
H70         C411   1.084       .  S
C71         C410   1.506       .  S
C71          H75   1.109       .  S
C71          H77   1.108       .  S
C71         H422   1.108       .  S
H73         C414   1.109       .  S
H76         C417   1.108       .  S
C78          C79   1.400   1_545  A
C78          C83   1.396       .  A
C78          H85   1.084       .  S
C79         C426   1.411       .  A
C80          C81   1.401       .  A
C80         C425   1.411       .  A
C80          C87   1.504       .  S
C81          C82   1.400       .  A
C81          H86   1.083       .  S
C82         C429   1.409       .  A
C83         C428   1.409   1_545  A
C83          C84   1.507       .  S
C84          H88   1.111       .  S
C84          H89   1.110       .  S
C84          H90   1.105       .  S
C87          H91   1.110       .  S
C87          H92   1.105       .  S
C87          H93   1.111       .  S
C94          C95   1.411   1_565  A
C94          C99   1.401       .  A
C94         H101   1.084       .  S
C95         C442   1.411       .  A
C96          C97   1.412       .  A
C96         C441   1.411       .  A
C96         C103   1.504       .  S
C97         C444   1.412       .  A
C97         H102   1.083       .  S
C98          C99   1.412   1_545  A
C98         C443   1.412       .  A
C99         C100   1.511       .  S
C100        H104   1.111       .  S
C100        H106   1.108       .  S
C100        H451   1.110       .  S
C103        H107   1.110       .  S
C103        H109   1.109       .  S
C103        H454   1.110       .  S
H105        C446   1.110       .  S
H108        C449   1.110       .  S
C110        C115   1.402       .  A
C110        C803   1.402       .  A
C110        H117   1.082       .  S
C111        C112   1.411       .  A
C111        C802   1.402   1_455  A
C112        C113   1.403       .  A
C112        C119   1.506       .  S
C113        C114   1.402   1_455  A
C113        H118   1.084       .  S
C114        C721   1.470       .  S
C114        C807   1.409       .  A
C115        C806   1.409       .  A
C115        C116   1.502       .  S
C116        H120   1.111       .  S
C116        H121   1.109       .  S
C116        H122   1.109       .  S
C119        H123   1.110       .  S
C119        H124   1.110       .  S
C119        H125   1.111       .  S
C126        C131   1.399       .  A
C126        C819   1.405       .  A
C126        H133   1.084       .  S
C127        C128   1.418       .  A
C127        C818   1.405   1_455  A
C128        C129   1.405       .  A
C128        C135   1.506       .  S
C129        C130   1.401       .  A
C129        H134   1.084       .  S
C130        C823   1.411   1_455  A
C131        C822   1.411       .  A
C131        C132   1.507       .  S
C132        H136   1.111       .  S
C132        H137   1.108       .  S
C132        H138   1.110       .  S
C135        H139   1.105       .  S
C135        H140   1.110       .  S
C135        H141   1.111       .  S
C142        C143   1.403       .  A
C142        C147   1.397       .  A
C142        H149   1.083       .  S
C143        C836   1.407       .  A
C144        C145   1.405       .  A
C144        C835   1.407       .  A
C144        C151   1.505       .  S
C145        C146   1.407   1_455  A
C145        H150   1.084       .  S
C146        C839   1.408       .  A
C147        C838   1.408       .  A
C147        C148   1.507       .  S
C148        H152   1.111       .  S
C148        H153   1.103       .  S
C148        H154   1.110       .  S
C151        H155   1.108       .  S
C151        H156   1.110       .  S
C151        H157   1.111       .  S
C158        C159   1.403   1_455  A
C158        C163   1.410       .  A
C158        H165   1.083       .  S
C159        C852   1.416       .  A
C160        C161   1.402       .  A
C160        C851   1.416       .  A
C160        C167   1.510       .  S
C161        C854   1.409       .  A
C161        H166   1.084       .  S
C162        C163   1.422   1_655  A
C162        C853   1.409       .  A
C163        C164   1.504       .  S
C164        H168   1.109       .  S
C164        H169   1.108       .  S
C164        H170   1.110       .  S
C167        H171   1.110       .  S
C167        H172   1.106       .  S
C167        H173   1.111       .  S
O174       Co194   1.877       .  S
O174        C874   1.275       .  A
O175       Co195   1.987       .  S
O175        C529   1.265       .  A
O176       Co542   1.932       .  S
O176        C530   1.280       .  A
O177       Co889   1.979       .  S
O177        C877   1.255   1_655  A
O178        C184   1.291       .  A
O179        C185   1.254       .  A
O180       Co889   1.956   1_455  S
O180        C183   1.254       .  A
O181       Co542   2.118       .  S
O181        C182   1.309   1_455  A
C182        O866   1.275       .  A
C182        C335   1.503       .  S
C183        O521   1.265       .  A
C183        C566   1.479       .  S
C184        O522   1.280   1_565  A
C184        C239   1.492       .  S
C185        O869   1.255       .  A
C185        C316   1.467       .  S
O186        C199   1.279       .  A
O187        C200   1.268       .  A
O188       Co888   2.029       .  S
O188        C201   1.268       .  A
O189       Co543   1.998   1_545  S
O189        C202   1.266       .  A
O190       Co195   1.986       .  S
O190        C894   1.260   1_455  A
O191       Co194   1.948       .  S
O191        C547   1.250       .  A
O192       Co543   1.957   1_545  S
O192        C545   1.271   1_545  A
O193       Co888   2.086       .  S
O193        C892   1.296       .  A
Co194       O198   1.863   1_556  S
Co195      O1063   1.984   1_455  S
Co196       O522   1.932       .  S
Co196       O527   2.118   1_545  S
Co196       O880   2.029   1_455  S
Co196       O885   2.086       .  S
Co196      O1236   2.102   1_456  S
Co197       O869   1.979       .  S
Co197       O872   1.956       .  S
Co197       O535   1.998       .  S
Co197       O538   1.957       .  S
O198      Co1060   1.984   1_554  S
O198      Co1234   2.102   1_554  S
C199        O538   1.271       .  A
C199        C255   1.459       .  S
C200        O885   1.296       .  A
C200        C300   1.483       .  S
C201        O537   1.250   1_545  A
C201        C268   1.493       .  S
C202        O882   1.260       .  A
C202        C979   1.470       .  S
C203        C332   1.495       .  S
C203        C204   1.419       .  A
C203        C208   1.406   1_655  A
C204        C319   1.476       .  S
C204        C205   1.400       .  A
C205        C206   1.397   1_655  A
C205        H210   1.085       .  S
C206        C284   1.480       .  S
C206        C207   1.410       .  A
C207        C303   1.477       .  S
C207        C208   1.402       .  A
C208        H209   1.084       .  S
C211        C252   1.472       .  S
C211        C212   1.415   1_565  A
C211        C216   1.389       .  A
C212        C271   1.497       .  S
C212        C213   1.415       .  A
C213        C214   1.412       .  A
C213        H218   1.082       .  S
C214        C236   1.502       .  S
C214        C215   1.421   1_545  A
C215        C223   1.476       .  S
C215        C216   1.390       .  A
C216        H217   1.084       .  S
C219        C220   1.405   1_545  A
C219        C224   1.398       .  A
C219        H226   1.084       .  S
C220        C529   1.479   1_565  S
C220        C567   1.423       .  A
C221        C566   1.423       .  A
C221        C222   1.396       .  A
C221        C228   1.508       .  S
C222        C569   1.395       .  A
C222        H227   1.084       .  S
C223        C568   1.395       .  A
C223        C224   1.415   1_565  A
C224        C225   1.510       .  S
C225        H229   1.111       .  S
C225        H576   1.108       .  S
C225        H231   1.110       .  S
C228        H232   1.107       .  S
C228        H579   1.111       .  S
C228        H234   1.110       .  S
H230        C571   1.108       .  S
H233        C574   1.111       .  S
C235        C236   1.406   1_565  A
C235        C240   1.410       .  A
C235        H242   1.084       .  S
C236        C237   1.418       .  A
C237        C238   1.408       .  A
C237        C590   1.506       .  S
C238        C239   1.405   1_545  A
C238        H589   1.084       .  S
C239        C240   1.418       .  A
C240        C241   1.507       .  S
C241        H245   1.111       .  S
C241        H592   1.109       .  S
C241        H247   1.109       .  S
H243        C584   1.084       .  S
C244        C583   1.506       .  S
C244        H248   1.109       .  S
C244        H595   1.108       .  S
C244        H250   1.108       .  S
H246        C587   1.109       .  S
H249        C590   1.108       .  S
C251        C252   1.400   1_545  A
C251        C256   1.396       .  A
C251        H258   1.084       .  S
C252        C599   1.411       .  A
C253        C598   1.411       .  A
C253        C254   1.401       .  A
C253        C260   1.504       .  S
C254        C255   1.400       .  A
C254        H259   1.083       .  S
C255        C602   1.409       .  A
C256        C601   1.409   1_545  A
C256        C257   1.507       .  S
C257        H261   1.111       .  S
C257        H262   1.110       .  S
C257        H263   1.105       .  S
C260        H264   1.110       .  S
C260        H265   1.105       .  S
C260        H266   1.111       .  S
C267        C268   1.411   1_565  A
C267        C272   1.401       .  A
C267        H274   1.084       .  S
C268        C615   1.411       .  A
C269        C614   1.411       .  A
C269        C270   1.412       .  A
C269        C276   1.504       .  S
C270        C617   1.412       .  A
C270        H275   1.083       .  S
C271        C616   1.412       .  A
C271        C272   1.412   1_545  A
C272        C273   1.511       .  S
C273        H277   1.111       .  S
C273        H624   1.110       .  S
C273        H279   1.108       .  S
C276        H280   1.110       .  S
C276        H627   1.110       .  S
C276        H282   1.109       .  S
H278        C619   1.110       .  S
H281        C622   1.110       .  S
C283        C976   1.402       .  A
C283        C288   1.402       .  A
C283        H290   1.082       .  S
C284        C975   1.402   1_455  A
C284        C285   1.411       .  A
C285        C286   1.403       .  A
C285        C292   1.506       .  S
C286        C287   1.402   1_455  A
C286        H291   1.084       .  S
C287        C894   1.470       .  S
C287        C980   1.409       .  A
C288        C979   1.409       .  A
C288        C289   1.502       .  S
C289        H293   1.111       .  S
C289        H294   1.109       .  S
C289        H295   1.109       .  S
C292        H296   1.110       .  S
C292        H297   1.110       .  S
C292        H298   1.111       .  S
C299        C992   1.405       .  A
C299        C304   1.399       .  A
C299        H306   1.084       .  S
C300        C991   1.405   1_455  A
C300        C301   1.418       .  A
C301        C302   1.405       .  A
C301        C308   1.506       .  S
C302        C303   1.401       .  A
C302        H307   1.084       .  S
C303        C996   1.411   1_455  A
C304        C995   1.411       .  A
C304        C305   1.507       .  S
C305        H309   1.111       .  S
C305        H310   1.108       .  S
C305        H311   1.110       .  S
C308        H312   1.105       .  S
C308        H313   1.110       .  S
C308        H314   1.111       .  S
C315        C316   1.403       .  A
C315        C320   1.397       .  A
C315        H322   1.083       .  S
C316       C1009   1.407       .  A
C317       C1008   1.407       .  A
C317        C318   1.405       .  A
C317        C324   1.505       .  S
C318        C319   1.407   1_455  A
C318        H323   1.084       .  S
C319       C1012   1.408       .  A
C320       C1011   1.408       .  A
C320        C321   1.507       .  S
C321        H325   1.111       .  S
C321        H326   1.103       .  S
C321        H327   1.110       .  S
C324        H328   1.108       .  S
C324        H329   1.110       .  S
C324        H330   1.111       .  S
C331        C332   1.403   1_455  A
C331        C336   1.410       .  A
C331        H338   1.083       .  S
C332       C1025   1.416       .  A
C333       C1024   1.416       .  A
C333        C334   1.402       .  A
C333        C340   1.510       .  S
C334       C1027   1.409       .  A
C334        H339   1.084       .  S
C335       C1026   1.409       .  A
C335        C336   1.422   1_655  A
C336        C337   1.504       .  S
C337        H341   1.109       .  S
C337        H342   1.108       .  S
C337        H343   1.110       .  S
C340        H344   1.110       .  S
C340        H345   1.106       .  S
C340        H346   1.111       .  S
O347       Co367   1.877       .  S
O347       C1047   1.275       .  A
O348       Co368   1.987   1_554  S
O350      Co1062   1.979       .  S
O350       C1050   1.255   1_655  A
O351       Co541   2.052       .  S
O351        C357   1.291       .  A
O352       Co540   2.001   1_554  S
O352        C358   1.254       .  A
O353      Co1062   1.956   1_455  S
O353        C356   1.254   1_565  A
O354        C355   1.309   1_455  A
C355       O1039   1.275       .  A
C355        C508   1.503       .  S
C357        C412   1.492       .  S
C358       O1042   1.255       .  A
C358        C489   1.467       .  S
O359       Co540   2.016   1_554  S
O359        C372   1.279       .  A
O360       Co541   1.911       .  S
O360        C373   1.268       .  A
O361      Co1061   2.029       .  S
O361        C374   1.268       .  A
O362        C375   1.266       .  A
O363       Co368   1.986   1_554  S
O363       C1067   1.260   1_455  A
O364       Co367   1.948       .  S
O366      Co1061   2.086       .  S
O366       C1065   1.296       .  A
Co367       O525   2.001       .  S
Co367       O532   2.016       .  S
Co367       O371   1.863   1_565  S
Co368       O524   2.052       .  S
Co368       O533   1.911       .  S
Co368       O890   1.984   1_456  S
Co369      O1053   2.029   1_455  S
Co369      O1058   2.086       .  S
Co369       O717   2.102   1_455  S
Co370      O1042   1.979       .  S
Co370      O1045   1.956       .  S
Co370       O544   2.043   1_565  S
O371       Co887   1.984       .  S
O371       Co715   2.102       .  S
O371       Co543   2.043   1_545  S
C372        C428   1.459       .  S
C373       O1058   1.296       .  A
C373        C473   1.483       .  S
C374        C441   1.493       .  S
C375       O1055   1.260       .  A
C375       C1152   1.470       .  S
C376        C505   1.495       .  S
C376        C377   1.420       .  A
C376        C381   1.406   1_655  A
C377        C492   1.476       .  S
C377        C378   1.400       .  A
C378        C379   1.397   1_655  A
C378        H383   1.085       .  S
C379        C457   1.480       .  S
C379        C380   1.410       .  A
C380        C476   1.477       .  S
C380        C381   1.402       .  A
C381        H382   1.084       .  S
C384        C425   1.472       .  S
C384        C385   1.415       .  A
C384        C389   1.389       .  A
C385        C444   1.497       .  S
C385        C386   1.415       .  A
C386        C387   1.412       .  A
C386        H391   1.082       .  S
C387        C409   1.502       .  S
C387        C388   1.421       .  A
C388        C396   1.476       .  S
C388        C389   1.390       .  A
C389        H390   1.084       .  S
C392        C393   1.405       .  A
C392        C397   1.398       .  A
C392        H399   1.084       .  S
C394        C395   1.396       .  A
C394        C401   1.508       .  S
C395        H400   1.084       .  S
C396        C397   1.415       .  A
C397        C398   1.510       .  S
C398        H402   1.111       .  S
C398        H404   1.110       .  S
C401        H405   1.107       .  S
C401        H407   1.110       .  S
C408        C409   1.406       .  A
C408        C413   1.410       .  A
C408        H415   1.084       .  S
C409        C410   1.418       .  A
C410        C411   1.408       .  A
C411        C412   1.405       .  A
C412        C413   1.418       .  A
C413        C414   1.507       .  S
C414        H418   1.111       .  S
C414        H420   1.109       .  S
C417        H421   1.109       .  S
C417        H423   1.108       .  S
C424        C425   1.400       .  A
C424        C429   1.396       .  A
C424        H431   1.084       .  S
C426        C427   1.401       .  A
C426        C433   1.504       .  S
C427        C428   1.400       .  A
C427        H432   1.083       .  S
C429        C430   1.507       .  S
C430        H434   1.111       .  S
C430        H435   1.110       .  S
C430        H436   1.105       .  S
C433        H437   1.110       .  S
C433        H438   1.105       .  S
C433        H439   1.111       .  S
C440        C441   1.411       .  A
C440        C445   1.401       .  A
C440        H447   1.084       .  S
C442        C443   1.412       .  A
C442        C449   1.504       .  S
C443        H448   1.083       .  S
C444        C445   1.412       .  A
C445        C446   1.511       .  S
C446        H450   1.111       .  S
C446        H452   1.108       .  S
C449        H453   1.110       .  S
C449        H455   1.109       .  S
C456       C1149   1.402       .  A
C456        C461   1.402       .  A
C456        H463   1.082       .  S
C457       C1148   1.402   1_455  A
C457        C458   1.411       .  A
C458        C459   1.403       .  A
C458        C465   1.506       .  S
C459        C460   1.402   1_455  A
C459        H464   1.084       .  S
C460       C1067   1.470       .  S
C460       C1153   1.409       .  A
C461       C1152   1.409       .  A
C461        C462   1.502       .  S
C462        H466   1.111       .  S
C462        H467   1.109       .  S
C462        H468   1.109       .  S
C465        H469   1.110       .  S
C465        H470   1.110       .  S
C465        H471   1.111       .  S
C472       C1165   1.405       .  A
C472        C477   1.399       .  A
C472        H479   1.084       .  S
C473       C1164   1.405   1_455  A
C473        C474   1.418       .  A
C474        C475   1.405       .  A
C474        C481   1.506       .  S
C475        C476   1.401       .  A
C475        H480   1.084       .  S
C476       C1169   1.411   1_455  A
C477       C1168   1.411       .  A
C477        C478   1.507       .  S
C478        H482   1.111       .  S
C478        H483   1.108       .  S
C478        H484   1.110       .  S
C481        H485   1.105       .  S
C481        H486   1.110       .  S
C481        H487   1.111       .  S
C488        C489   1.403       .  A
C488        C493   1.397       .  A
C488        H495   1.083       .  S
C489       C1182   1.407       .  A
C490       C1181   1.407       .  A
C490        C491   1.405       .  A
C490        C497   1.505       .  S
C491        C492   1.407   1_455  A
C491        H496   1.084       .  S
C492       C1185   1.408       .  A
C493       C1184   1.408       .  A
C493        C494   1.507       .  S
C494        H498   1.111       .  S
C494        H499   1.103       .  S
C494        H500   1.110       .  S
C497        H501   1.108       .  S
C497        H502   1.110       .  S
C497        H503   1.111       .  S
C504        C505   1.403   1_455  A
C504        C509   1.410       .  A
C504        H511   1.083       .  S
C505       C1198   1.416       .  A
C506       C1197   1.416       .  A
C506        C507   1.402       .  A
C506        C513   1.510       .  S
C507       C1200   1.409       .  A
C507        H512   1.084       .  S
C508       C1199   1.409       .  A
C508        C509   1.422   1_655  A
C509        C510   1.504       .  S
C510        H514   1.109       .  S
C510        H515   1.108       .  S
C510        H516   1.110       .  S
C513        H517   1.110       .  S
C513        H518   1.106       .  S
C513        H519   1.111       .  S
O520       Co540   1.877       .  S
O520       C1220   1.275       .  A
O521       Co541   1.987       .  S
O523      Co1235   1.979       .  S
O523       C1223   1.255   1_655  A
O524        C530   1.291       .  A
O525        C531   1.254       .  A
O526      Co1235   1.956   1_455  S
O526        C529   1.254   1_565  A
O527        C528   1.309   1_455  A
C528       O1212   1.275       .  A
C528        C681   1.503       .  S
C530        C585   1.492       .  S
C531       O1215   1.255       .  A
C531        C662   1.467       .  S
O532        C545   1.279       .  A
O533        C546   1.268       .  A
O534      Co1234   2.029       .  S
O534        C547   1.268       .  A
O535        C548   1.266       .  A
O536       Co541   1.986       .  S
O536       C1240   1.260   1_455  A
O537       Co540   1.948       .  S
O539      Co1234   2.086       .  S
O539       C1238   1.296       .  A
Co540       O544   1.863   1_566  S
Co541       O717   1.984   1_455  S
Co542      O1226   2.029   1_455  S
Co542      O1231   2.086       .  S
Co542       O890   2.102   1_456  S
Co543      O1215   1.979       .  S
Co543      O1218   1.956       .  S
O544       Co714   1.984   1_554  S
O544       Co888   2.102   1_554  S
C545        C601   1.459       .  S
C546       O1231   1.296       .  A
C546        C646   1.483       .  S
C547        C614   1.493       .  S
C548       O1228   1.260       .  A
C548       C1325   1.470       .  S
C549        C678   1.495       .  S
C549        C550   1.420       .  A
C549        C554   1.406   1_655  A
C550        C665   1.476       .  S
C550        C551   1.400       .  A
C551        C552   1.397   1_655  A
C551        H556   1.085       .  S
C552        C630   1.480       .  S
C552        C553   1.410       .  A
C553        C649   1.477       .  S
C553        C554   1.402       .  A
C554        H555   1.084       .  S
C557        C598   1.472       .  S
C557        C558   1.415       .  A
C557        C562   1.389       .  A
C558        C617   1.497       .  S
C558        C559   1.415       .  A
C559        C560   1.412       .  A
C559        H564   1.082       .  S
C560        C582   1.502       .  S
C560        C561   1.421       .  A
C561        C569   1.476       .  S
C561        C562   1.390       .  A
C562        H563   1.084       .  S
C565        C566   1.405       .  A
C565        C570   1.398       .  A
C565        H572   1.084       .  S
C567        C568   1.396       .  A
C567        C574   1.508       .  S
C568        H573   1.084       .  S
C569        C570   1.415       .  A
C570        C571   1.510       .  S
C571        H575   1.111       .  S
C571        H577   1.110       .  S
C574        H578   1.107       .  S
C574        H580   1.110       .  S
C581        C582   1.406       .  A
C581        C586   1.410       .  A
C581        H588   1.084       .  S
C582        C583   1.418       .  A
C583        C584   1.408       .  A
C584        C585   1.405       .  A
C585        C586   1.418       .  A
C586        C587   1.507       .  S
C587        H591   1.111       .  S
C587        H593   1.109       .  S
C590        H594   1.109       .  S
C590        H596   1.108       .  S
C597        C598   1.400       .  A
C597        C602   1.396       .  A
C597        H604   1.084       .  S
C599        C600   1.401       .  A
C599        C606   1.504       .  S
C600        C601   1.400       .  A
C600        H605   1.083       .  S
C602        C603   1.507       .  S
C603        H607   1.111       .  S
C603        H608   1.110       .  S
C603        H609   1.105       .  S
C606        H610   1.110       .  S
C606        H611   1.105       .  S
C606        H612   1.111       .  S
C613        C614   1.411       .  A
C613        C618   1.401       .  A
C613        H620   1.084       .  S
C615        C616   1.412       .  A
C615        C622   1.504       .  S
C616        H621   1.083       .  S
C617        C618   1.412       .  A
C618        C619   1.511       .  S
C619        H623   1.111       .  S
C619        H625   1.108       .  S
C622        H626   1.110       .  S
C622        H628   1.109       .  S
C629       C1322   1.402       .  A
C629        C634   1.402       .  A
C629        H636   1.082       .  S
C630       C1321   1.402   1_455  A
C630        C631   1.411       .  A
C631        C632   1.403       .  A
C631        C638   1.506       .  S
C632        C633   1.402   1_455  A
C632        H637   1.084       .  S
C633       C1240   1.470       .  S
C633       C1326   1.409       .  A
C634       C1325   1.409       .  A
C634        C635   1.502       .  S
C635        H639   1.111       .  S
C635        H640   1.109       .  S
C635        H641   1.109       .  S
C638        H642   1.110       .  S
C638        H643   1.110       .  S
C638        H644   1.111       .  S
C645       C1338   1.405       .  A
C645        C650   1.399       .  A
C645        H652   1.084       .  S
C646       C1337   1.405   1_455  A
C646        C647   1.418       .  A
C647        C648   1.405       .  A
C647        C654   1.506       .  S
C648        C649   1.401       .  A
C648        H653   1.084       .  S
C649       C1342   1.411   1_455  A
C650       C1341   1.411       .  A
C650        C651   1.507       .  S
C651        H655   1.111       .  S
C651        H656   1.108       .  S
C651        H657   1.110       .  S
C654        H658   1.105       .  S
C654        H659   1.110       .  S
C654        H660   1.111       .  S
C661        C662   1.403       .  A
C661        C666   1.397       .  A
C661        H668   1.083       .  S
C662       C1355   1.407       .  A
C663       C1354   1.407       .  A
C663        C664   1.405       .  A
C663        C670   1.505       .  S
C664        C665   1.407   1_455  A
C664        H669   1.084       .  S
C665       C1358   1.408       .  A
C666       C1357   1.408       .  A
C666        C667   1.507       .  S
C667        H671   1.111       .  S
C667        H672   1.103       .  S
C667        H673   1.110       .  S
C670        H674   1.108       .  S
C670        H675   1.110       .  S
C670        H676   1.111       .  S
C677        C678   1.403   1_455  A
C677        C682   1.410       .  A
C677        H684   1.083       .  S
C678       C1371   1.416       .  A
C679       C1370   1.416       .  A
C679        C680   1.402       .  A
C679        C686   1.510       .  S
C680       C1373   1.409       .  A
C680        H685   1.084       .  S
C681       C1372   1.409       .  A
C681        C682   1.422   1_655  A
C682        C683   1.504       .  S
C683        H687   1.109       .  S
C683        H688   1.108       .  S
C683        H689   1.110       .  S
C686        H690   1.110       .  S
C686        H691   1.106       .  S
C686        H692   1.111       .  S
O693       Co713   1.877       .  S
O694       Co714   1.987   1_554  S
O694       C1048   1.265       .  A
O695      Co1061   1.932       .  S
O695       C1049   1.280       .  A
O697       Co887   2.052   1_565  S
O697        C703   1.291       .  A
O698       Co886   2.001   1_454  S
O698        C704   1.254       .  A
O699        C702   1.254       .  A
O700      Co1061   2.118       .  S
O700        C701   1.309       .  A
C701        C854   1.503       .  S
C702       O1040   1.265       .  A
C702       C1085   1.479       .  S
C703       O1041   1.280   1_565  A
C703        C758   1.492       .  S
C704        C835   1.467       .  S
O705       Co886   2.016   1_554  S
O705        C718   1.279       .  A
O706       Co887   1.911       .  S
O706        C719   1.268       .  A
O707        C720   1.268       .  A
O708      Co1062   1.998   1_445  S
O708        C721   1.266   1_455  A
O709       Co714   1.986   1_554  S
O710       Co713   1.948       .  S
O710       C1066   1.250       .  A
O711      Co1062   1.957   1_545  S
O711       C1064   1.271   1_545  A
Co713       O871   2.001   1_655  S
Co713       O878   2.016       .  S
Co713       O717   1.863       .  S
Co714       O870   2.052   1_545  S
Co714       O879   1.911       .  S
Co715      O1041   1.932       .  S
Co715      O1046   2.118   1_545  S
Co716      O1054   1.998   1_655  S
Co716      O1057   1.957       .  S
Co716       O890   2.043       .  S
O717       Co889   2.043       .  S
C718       O1057   1.271       .  A
C718        C774   1.459       .  S
C719        C819   1.483       .  S
C720       O1056   1.250   1_545  A
C720        C787   1.493       .  S
C722        C851   1.495       .  S
C722        C723   1.419       .  A
C722        C727   1.406       .  A
C723        C838   1.476       .  S
C723        C724   1.400       .  A
C724        C725   1.397       .  A
C724        H729   1.085       .  S
C725        C803   1.480       .  S
C725        C726   1.410       .  A
C726        C822   1.477       .  S
C726        C727   1.402       .  A
C727        H728   1.084       .  S
C730        C771   1.472       .  S
C730        C731   1.415   1_565  A
C730        C735   1.389       .  A
C731        C790   1.497       .  S
C731        C732   1.415       .  A
C732        C733   1.412       .  A
C732        H737   1.082       .  S
C733        C755   1.502       .  S
C733        C734   1.421   1_545  A
C734        C742   1.476       .  S
C734        C735   1.390       .  A
C735        H736   1.084       .  S
C738        C739   1.405   1_545  A
C738        C743   1.398       .  A
C738        H745   1.084       .  S
C739       C1048   1.479   1_565  S
C739       C1086   1.423       .  A
C740       C1085   1.423       .  A
C740        C741   1.396       .  A
C740        C747   1.508       .  S
C741       C1088   1.395       .  A
C741        H746   1.084       .  S
C742       C1087   1.395       .  A
C742        C743   1.415   1_565  A
C743        C744   1.510       .  S
C744        H748   1.111       .  S
C744       H1095   1.108       .  S
C744        H750   1.110       .  S
C747        H751   1.107       .  S
C747       H1098   1.111       .  S
C747        H753   1.110       .  S
H749       C1090   1.108       .  S
H752       C1093   1.111       .  S
C754        C755   1.406   1_565  A
C754        C759   1.410       .  A
C754        H761   1.084       .  S
C755        C756   1.418       .  A
C756        C757   1.408       .  A
C756       C1109   1.506       .  S
C757        C758   1.405   1_545  A
C757       H1108   1.084       .  S
C758        C759   1.418       .  A
C759        C760   1.507       .  S
C760        H764   1.111       .  S
C760       H1111   1.109       .  S
C760        H766   1.109       .  S
H762       C1103   1.084       .  S
C763       C1102   1.506       .  S
C763        H767   1.109       .  S
C763       H1114   1.108       .  S
C763        H769   1.108       .  S
H765       C1106   1.109       .  S
H768       C1109   1.108       .  S
C770        C771   1.400   1_545  A
C770        C775   1.396       .  A
C770        H777   1.084       .  S
C771       C1118   1.411       .  A
C772       C1117   1.411       .  A
C772        C773   1.401       .  A
C772        C779   1.504       .  S
C773        C774   1.400       .  A
C773        H778   1.083       .  S
C774       C1121   1.409       .  A
C775       C1120   1.409   1_545  A
C775        C776   1.507       .  S
C776        H780   1.111       .  S
C776        H781   1.110       .  S
C776        H782   1.105       .  S
C779        H783   1.110       .  S
C779        H784   1.105       .  S
C779        H785   1.111       .  S
C786        C787   1.411   1_565  A
C786        C791   1.401       .  A
C786        H793   1.084       .  S
C787       C1134   1.411       .  A
C788       C1133   1.411       .  A
C788        C789   1.412       .  A
C788        C795   1.504       .  S
C789       C1136   1.412       .  A
C789        H794   1.083       .  S
C790       C1135   1.412       .  A
C790        C791   1.412   1_545  A
C791        C792   1.511       .  S
C792        H796   1.111       .  S
C792       H1143   1.110       .  S
C792        H798   1.108       .  S
C795        H799   1.110       .  S
C795       H1146   1.110       .  S
C795        H801   1.109       .  S
H797       C1138   1.110       .  S
H800       C1141   1.110       .  S
C802        C807   1.402       .  A
C802        H809   1.082       .  S
C803        C804   1.411       .  A
C804        C805   1.403       .  A
C804        C811   1.506       .  S
C805        C806   1.402       .  A
C805        H810   1.084       .  S
C807        C808   1.502       .  S
C808        H812   1.111       .  S
C808        H813   1.109       .  S
C808        H814   1.109       .  S
C811        H815   1.110       .  S
C811        H816   1.110       .  S
C811        H817   1.111       .  S
C818        C823   1.399       .  A
C818        H825   1.084       .  S
C819        C820   1.418       .  A
C820        C821   1.405       .  A
C820        C827   1.506       .  S
C821        C822   1.401       .  A
C821        H826   1.084       .  S
C823        C824   1.507       .  S
C824        H828   1.111       .  S
C824        H829   1.108       .  S
C824        H830   1.110       .  S
C827        H831   1.105       .  S
C827        H832   1.110       .  S
C827        H833   1.111       .  S
C834        C835   1.403   1_655  A
C834        C839   1.397       .  A
C834        H841   1.083       .  S
C836        C837   1.405       .  A
C836        C843   1.505       .  S
C837        C838   1.407       .  A
C837        H842   1.084       .  S
C839        C840   1.507       .  S
C840        H844   1.111       .  S
C840        H845   1.103       .  S
C840        H846   1.110       .  S
C843        H847   1.108       .  S
C843        H848   1.110       .  S
C843        H849   1.111       .  S
C850        C851   1.403       .  A
C850        C855   1.410       .  A
C850        H857   1.083       .  S
C852        C853   1.402       .  A
C852        C859   1.510       .  S
C853        H858   1.084       .  S
C854        C855   1.422       .  A
C855        C856   1.504       .  S
C856        H860   1.109       .  S
C856        H861   1.108       .  S
C856        H862   1.110       .  S
C859        H863   1.110       .  S
C859        H864   1.106       .  S
C859        H865   1.111       .  S
O866       Co886   1.877       .  S
O867       Co887   1.987       .  S
O867       C1221   1.265       .  A
O868      Co1234   1.932       .  S
O868       C1222   1.280       .  A
O870        C876   1.291       .  A
O871        C877   1.254       .  A
O872        C875   1.254       .  A
O873      Co1234   2.118       .  S
O873        C874   1.309       .  A
C874       C1027   1.503       .  S
C875       O1213   1.265       .  A
C875       C1258   1.479       .  S
C876       O1214   1.280   1_565  A
C876        C931   1.492       .  S
C877       C1008   1.467       .  S
O878        C891   1.279       .  A
O879        C892   1.268       .  A
O880        C893   1.268       .  A
O881      Co1235   1.998   1_445  S
O881        C894   1.266   1_455  A
O882       Co887   1.986       .  S
O883       Co886   1.948       .  S
O883       C1239   1.250       .  A
O884      Co1235   1.957   1_545  S
O884       C1237   1.271   1_545  A
Co886       O890   1.863   1_556  S
Co888      O1214   1.932       .  S
Co888      O1219   2.118   1_545  S
Co889      O1227   1.998   1_655  S
Co889      O1230   1.957       .  S
C891       O1230   1.271       .  A
C891        C947   1.459       .  S
C892        C992   1.483       .  S
C893       O1229   1.250   1_545  A
C893        C960   1.493       .  S
C895       C1024   1.495       .  S
C895        C896   1.419       .  A
C895        C900   1.406       .  A
C896       C1011   1.476       .  S
C896        C897   1.400       .  A
C897        C898   1.397       .  A
C897        H902   1.085       .  S
C898        C976   1.480       .  S
C898        C899   1.410       .  A
C899        C995   1.477       .  S
C899        C900   1.402       .  A
C900        H901   1.084       .  S
C903        C944   1.472       .  S
C903        C904   1.415   1_565  A
C903        C908   1.389       .  A
C904        C963   1.497       .  S
C904        C905   1.415       .  A
C905        C906   1.412       .  A
C905        H910   1.082       .  S
C906        C928   1.502       .  S
C906        C907   1.421   1_545  A
C907        C915   1.476       .  S
C907        C908   1.390       .  A
C908        H909   1.084       .  S
C911        C912   1.405   1_545  A
C911        C916   1.398       .  A
C911        H918   1.084       .  S
C912       C1221   1.479   1_565  S
C912       C1259   1.423       .  A
C913       C1258   1.423       .  A
C913        C914   1.396       .  A
C913        C920   1.508       .  S
C914       C1261   1.395       .  A
C914        H919   1.084       .  S
C915       C1260   1.395       .  A
C915        C916   1.415   1_565  A
C916        C917   1.510       .  S
C917        H921   1.111       .  S
C917       H1268   1.108       .  S
C917        H923   1.110       .  S
C920        H924   1.107       .  S
C920       H1271   1.111       .  S
C920        H926   1.110       .  S
H922       C1263   1.108       .  S
H925       C1266   1.111       .  S
C927        C928   1.406   1_565  A
C927        C932   1.410       .  A
C927        H934   1.084       .  S
C928        C929   1.418       .  A
C929        C930   1.408       .  A
C929       C1282   1.506       .  S
C930        C931   1.405   1_545  A
C930       H1281   1.084       .  S
C931        C932   1.418       .  A
C932        C933   1.507       .  S
C933        H937   1.111       .  S
C933       H1284   1.109       .  S
C933        H939   1.109       .  S
H935       C1276   1.084       .  S
C936       C1275   1.506       .  S
C936        H940   1.109       .  S
C936       H1287   1.108       .  S
C936        H942   1.108       .  S
H938       C1279   1.109       .  S
H941       C1282   1.108       .  S
C943        C944   1.400   1_545  A
C943        C948   1.396       .  A
C943        H950   1.084       .  S
C944       C1291   1.411       .  A
C945       C1290   1.411       .  A
C945        C946   1.401       .  A
C945        C952   1.504       .  S
C946        C947   1.400       .  A
C946        H951   1.083       .  S
C947       C1294   1.409       .  A
C948       C1293   1.409   1_545  A
C948        C949   1.507       .  S
C949        H953   1.111       .  S
C949        H954   1.110       .  S
C949        H955   1.105       .  S
C952        H956   1.110       .  S
C952        H957   1.105       .  S
C952        H958   1.111       .  S
C959        C960   1.411   1_565  A
C959        C964   1.401       .  A
C959        H966   1.084       .  S
C960       C1307   1.411       .  A
C961       C1306   1.411       .  A
C961        C962   1.412       .  A
C961        C968   1.504       .  S
C962       C1309   1.412       .  A
C962        H967   1.083       .  S
C963       C1308   1.412       .  A
C963        C964   1.412   1_545  A
C964        C965   1.511       .  S
C965        H969   1.111       .  S
C965       H1316   1.110       .  S
C965        H971   1.108       .  S
C968        H972   1.110       .  S
C968       H1319   1.110       .  S
C968        H974   1.109       .  S
H970       C1311   1.110       .  S
H973       C1314   1.110       .  S
C975        C980   1.402       .  A
C975        H982   1.082       .  S
C976        C977   1.411       .  A
C977        C978   1.403       .  A
C977        C984   1.506       .  S
C978        C979   1.402       .  A
C978        H983   1.084       .  S
C980        C981   1.502       .  S
C981        H985   1.111       .  S
C981        H986   1.109       .  S
C981        H987   1.109       .  S
C984        H988   1.110       .  S
C984        H989   1.110       .  S
C984        H990   1.111       .  S
C991        C996   1.399       .  A
C991        H998   1.084       .  S
C992        C993   1.418       .  A
C993        C994   1.405       .  A
C993       C1000   1.506       .  S
C994        C995   1.401       .  A
C994        H999   1.084       .  S
C996        C997   1.507       .  S
C997       H1001   1.111       .  S
C997       H1002   1.108       .  S
C997       H1003   1.110       .  S
C1000      H1004   1.105       .  S
C1000      H1005   1.110       .  S
C1000      H1006   1.111       .  S
C1007      C1008   1.403   1_655  A
C1007      C1012   1.397       .  A
C1007      H1014   1.083       .  S
C1009      C1010   1.405       .  A
C1009      C1016   1.505       .  S
C1010      C1011   1.407       .  A
C1010      H1015   1.084       .  S
C1012      C1013   1.507       .  S
C1013      H1017   1.111       .  S
C1013      H1018   1.103       .  S
C1013      H1019   1.110       .  S
C1016      H1020   1.108       .  S
C1016      H1021   1.110       .  S
C1016      H1022   1.111       .  S
C1023      C1024   1.403       .  A
C1023      C1028   1.410       .  A
C1023      H1030   1.083       .  S
C1025      C1026   1.402       .  A
C1025      C1032   1.510       .  S
C1026      H1031   1.084       .  S
C1027      C1028   1.422       .  A
C1028      C1029   1.504       .  S
C1029      H1033   1.109       .  S
C1029      H1034   1.108       .  S
C1029      H1035   1.110       .  S
C1032      H1036   1.110       .  S
C1032      H1037   1.106       .  S
C1032      H1038   1.111       .  S
O1039     Co1059   1.877       .  S
O1040     Co1060   1.987   1_554  S
O1043     Co1233   2.052       .  S
O1043      C1049   1.291       .  A
O1044     Co1232   2.001   1_454  S
O1044      C1050   1.254       .  A
O1045      C1048   1.254   1_565  A
O1046      C1047   1.309       .  A
C1047      C1200   1.503       .  S
C1049      C1104   1.492       .  S
C1050      C1181   1.467       .  S
O1051     Co1232   2.016   1_554  S
O1051      C1064   1.279       .  A
O1052     Co1233   1.911       .  S
O1052      C1065   1.268       .  A
O1053      C1066   1.268       .  A
O1054      C1067   1.266   1_455  A
O1055     Co1060   1.986   1_554  S
O1056     Co1059   1.948       .  S
Co1059     O1217   2.001   1_655  S
Co1059     O1224   2.016       .  S
Co1059     O1063   1.863   1_565  S
Co1060     O1216   2.052       .  S
Co1060     O1225   1.911       .  S
Co1062     O1236   2.043   1_565  S
O1063     Co1235   2.043   1_545  S
C1064      C1120   1.459       .  S
C1065      C1165   1.483       .  S
C1066      C1133   1.493       .  S
C1068      C1197   1.495       .  S
C1068      C1069   1.419       .  A
C1068      C1073   1.406       .  A
C1069      C1184   1.476       .  S
C1069      C1070   1.400       .  A
C1070      C1071   1.397       .  A
C1070      H1075   1.085       .  S
C1071      C1149   1.480       .  S
C1071      C1072   1.410       .  A
C1072      C1168   1.477       .  S
C1072      C1073   1.402       .  A
C1073      H1074   1.084       .  S
C1076      C1117   1.472       .  S
C1076      C1077   1.415       .  A
C1076      C1081   1.389       .  A
C1077      C1136   1.497       .  S
C1077      C1078   1.415       .  A
C1078      C1079   1.412       .  A
C1078      H1083   1.082       .  S
C1079      C1101   1.502       .  S
C1079      C1080   1.421       .  A
C1080      C1088   1.476       .  S
C1080      C1081   1.390       .  A
C1081      H1082   1.084       .  S
C1084      C1085   1.405       .  A
C1084      C1089   1.398       .  A
C1084      H1091   1.084       .  S
C1086      C1087   1.396       .  A
C1086      C1093   1.508       .  S
C1087      H1092   1.084       .  S
C1088      C1089   1.415       .  A
C1089      C1090   1.510       .  S
C1090      H1094   1.111       .  S
C1090      H1096   1.110       .  S
C1093      H1097   1.107       .  S
C1093      H1099   1.110       .  S
C1100      C1101   1.406       .  A
C1100      C1105   1.410       .  A
C1100      H1107   1.084       .  S
C1101      C1102   1.418       .  A
C1102      C1103   1.408       .  A
C1103      C1104   1.405       .  A
C1104      C1105   1.418       .  A
C1105      C1106   1.507       .  S
C1106      H1110   1.111       .  S
C1106      H1112   1.109       .  S
C1109      H1113   1.109       .  S
C1109      H1115   1.108       .  S
C1116      C1117   1.400       .  A
C1116      C1121   1.396       .  A
C1116      H1123   1.084       .  S
C1118      C1119   1.401       .  A
C1118      C1125   1.504       .  S
C1119      C1120   1.400       .  A
C1119      H1124   1.083       .  S
C1121      C1122   1.507       .  S
C1122      H1126   1.111       .  S
C1122      H1127   1.110       .  S
C1122      H1128   1.105       .  S
C1125      H1129   1.110       .  S
C1125      H1130   1.105       .  S
C1125      H1131   1.111       .  S
C1132      C1133   1.411       .  A
C1132      C1137   1.401       .  A
C1132      H1139   1.084       .  S
C1134      C1135   1.412       .  A
C1134      C1141   1.504       .  S
C1135      H1140   1.083       .  S
C1136      C1137   1.412       .  A
C1137      C1138   1.511       .  S
C1138      H1142   1.111       .  S
C1138      H1144   1.108       .  S
C1141      H1145   1.110       .  S
C1141      H1147   1.109       .  S
C1148      C1153   1.402       .  A
C1148      H1155   1.082       .  S
C1149      C1150   1.411       .  A
C1150      C1151   1.403       .  A
C1150      C1157   1.506       .  S
C1151      C1152   1.402       .  A
C1151      H1156   1.084       .  S
C1153      C1154   1.502       .  S
C1154      H1158   1.111       .  S
C1154      H1159   1.109       .  S
C1154      H1160   1.109       .  S
C1157      H1161   1.110       .  S
C1157      H1162   1.110       .  S
C1157      H1163   1.111       .  S
C1164      C1169   1.399       .  A
C1164      H1171   1.084       .  S
C1165      C1166   1.418       .  A
C1166      C1167   1.405       .  A
C1166      C1173   1.506       .  S
C1167      C1168   1.401       .  A
C1167      H1172   1.084       .  S
C1169      C1170   1.507       .  S
C1170      H1174   1.111       .  S
C1170      H1175   1.108       .  S
C1170      H1176   1.110       .  S
C1173      H1177   1.105       .  S
C1173      H1178   1.110       .  S
C1173      H1179   1.111       .  S
C1180      C1181   1.403   1_655  A
C1180      C1185   1.397       .  A
C1180      H1187   1.083       .  S
C1182      C1183   1.405       .  A
C1182      C1189   1.505       .  S
C1183      C1184   1.407       .  A
C1183      H1188   1.084       .  S
C1185      C1186   1.507       .  S
C1186      H1190   1.111       .  S
C1186      H1191   1.103       .  S
C1186      H1192   1.110       .  S
C1189      H1193   1.108       .  S
C1189      H1194   1.110       .  S
C1189      H1195   1.111       .  S
C1196      C1197   1.403       .  A
C1196      C1201   1.410       .  A
C1196      H1203   1.083       .  S
C1198      C1199   1.402       .  A
C1198      C1205   1.510       .  S
C1199      H1204   1.084       .  S
C1200      C1201   1.422       .  A
C1201      C1202   1.504       .  S
C1202      H1206   1.109       .  S
C1202      H1207   1.108       .  S
C1202      H1208   1.110       .  S
C1205      H1209   1.110       .  S
C1205      H1210   1.106       .  S
C1205      H1211   1.111       .  S
O1212     Co1232   1.877       .  S
O1213     Co1233   1.987       .  S
O1216      C1222   1.291       .  A
O1217      C1223   1.254       .  A
O1218      C1221   1.254   1_565  A
O1219      C1220   1.309       .  A
C1220      C1373   1.503       .  S
C1222      C1277   1.492       .  S
C1223      C1354   1.467       .  S
O1224      C1237   1.279       .  A
O1225      C1238   1.268       .  A
O1226      C1239   1.268       .  A
O1227      C1240   1.266   1_455  A
O1228     Co1233   1.986       .  S
O1229     Co1232   1.948       .  S
Co1232     O1236   1.863   1_566  S
C1237      C1293   1.459       .  S
C1238      C1338   1.483       .  S
C1239      C1306   1.493       .  S
C1241      C1370   1.495       .  S
C1241      C1242   1.420       .  A
C1241      C1246   1.406       .  A
C1242      C1357   1.476       .  S
C1242      C1243   1.400       .  A
C1243      C1244   1.397       .  A
C1243      H1248   1.085       .  S
C1244      C1322   1.480       .  S
C1244      C1245   1.410       .  A
C1245      C1341   1.477       .  S
C1245      C1246   1.402       .  A
C1246      H1247   1.084       .  S
C1249      C1290   1.472       .  S
C1249      C1250   1.415       .  A
C1249      C1254   1.389       .  A
C1250      C1309   1.497       .  S
C1250      C1251   1.415       .  A
C1251      C1252   1.412       .  A
C1251      H1256   1.082       .  S
C1252      C1274   1.502       .  S
C1252      C1253   1.421       .  A
C1253      C1261   1.476       .  S
C1253      C1254   1.390       .  A
C1254      H1255   1.084       .  S
C1257      C1258   1.405       .  A
C1257      C1262   1.398       .  A
C1257      H1264   1.084       .  S
C1259      C1260   1.396       .  A
C1259      C1266   1.508       .  S
C1260      H1265   1.084       .  S
C1261      C1262   1.415       .  A
C1262      C1263   1.510       .  S
C1263      H1267   1.111       .  S
C1263      H1269   1.110       .  S
C1266      H1270   1.107       .  S
C1266      H1272   1.110       .  S
C1273      C1274   1.406       .  A
C1273      C1278   1.410       .  A
C1273      H1280   1.084       .  S
C1274      C1275   1.418       .  A
C1275      C1276   1.408       .  A
C1276      C1277   1.405       .  A
C1277      C1278   1.418       .  A
C1278      C1279   1.507       .  S
C1279      H1283   1.111       .  S
C1279      H1285   1.109       .  S
C1282      H1286   1.109       .  S
C1282      H1288   1.108       .  S
C1289      C1290   1.400       .  A
C1289      C1294   1.396       .  A
C1289      H1296   1.084       .  S
C1291      C1292   1.401       .  A
C1291      C1298   1.504       .  S
C1292      C1293   1.400       .  A
C1292      H1297   1.083       .  S
C1294      C1295   1.507       .  S
C1295      H1299   1.111       .  S
C1295      H1300   1.110       .  S
C1295      H1301   1.105       .  S
C1298      H1302   1.110       .  S
C1298      H1303   1.105       .  S
C1298      H1304   1.111       .  S
C1305      C1306   1.411       .  A
C1305      C1310   1.401       .  A
C1305      H1312   1.084       .  S
C1307      C1308   1.412       .  A
C1307      C1314   1.504       .  S
C1308      H1313   1.083       .  S
C1309      C1310   1.412       .  A
C1310      C1311   1.511       .  S
C1311      H1315   1.111       .  S
C1311      H1317   1.108       .  S
C1314      H1318   1.110       .  S
C1314      H1320   1.109       .  S
C1321      C1326   1.402       .  A
C1321      H1328   1.082       .  S
C1322      C1323   1.411       .  A
C1323      C1324   1.403       .  A
C1323      C1330   1.506       .  S
C1324      C1325   1.402       .  A
C1324      H1329   1.084       .  S
C1326      C1327   1.502       .  S
C1327      H1331   1.111       .  S
C1327      H1332   1.109       .  S
C1327      H1333   1.109       .  S
C1330      H1334   1.110       .  S
C1330      H1335   1.110       .  S
C1330      H1336   1.111       .  S
C1337      C1342   1.399       .  A
C1337      H1344   1.084       .  S
C1338      C1339   1.418       .  A
C1339      C1340   1.405       .  A
C1339      C1346   1.506       .  S
C1340      C1341   1.401       .  A
C1340      H1345   1.084       .  S
C1342      C1343   1.507       .  S
C1343      H1347   1.111       .  S
C1343      H1348   1.108       .  S
C1343      H1349   1.110       .  S
C1346      H1350   1.105       .  S
C1346      H1351   1.110       .  S
C1346      H1352   1.111       .  S
C1353      C1354   1.403   1_655  A
C1353      C1358   1.397       .  A
C1353      H1360   1.083       .  S
C1355      C1356   1.405       .  A
C1355      C1362   1.505       .  S
C1356      C1357   1.407       .  A
C1356      H1361   1.084       .  S
C1358      C1359   1.507       .  S
C1359      H1363   1.111       .  S
C1359      H1364   1.103       .  S
C1359      H1365   1.110       .  S
C1362      H1366   1.108       .  S
C1362      H1367   1.110       .  S
C1362      H1368   1.111       .  S
C1369      C1370   1.403       .  A
C1369      C1374   1.410       .  A
C1369      H1376   1.083       .  S
C1371      C1372   1.402       .  A
C1371      C1378   1.510       .  S
C1372      H1377   1.084       .  S
C1373      C1374   1.422       .  A
C1374      C1375   1.504       .  S
C1375      H1379   1.109       .  S
C1375      H1380   1.108       .  S
C1375      H1381   1.110       .  S
C1378      H1382   1.110       .  S
C1378      H1383   1.106       .  S
C1378      H1384   1.111       .  S
