geometry optimzed in LAMMPS
_audit_creation_date              2020-12-01 
_audit_creation_method            'lammps2cif' 
_symmetry_space_group_name_H-M    'P1' 
_symmetry_Int_Tables_number       1 
_symmetry_cell_setting            triclinic 
loop_ 
_symmetry_equiv_pos_as_xyz 
  x,y,z 
_cell_length_a                    46.12253517 
_cell_length_b                    46.10169195937848 
_cell_length_c                    52.74989311429711 
_cell_angle_alpha                 90.07568695989251 
_cell_angle_beta                  90.71064551699922 
_cell_angle_gamma                 89.88325619831672 
loop_ 
_atom_site_label 
_atom_site_type_symbol 
_atom_site_fract_x 
_atom_site_fract_y 
_atom_site_fract_z 
_atom_site_charge 
O1          O  0.22452892  0.73926163  0.28431064    -0.73400
O2          O  0.30059991  0.74864910  0.24979319    -0.74400
O3          O  0.26907813  0.78162468  0.28552504    -0.63000
O4          O  0.25606895  0.70624506  0.24845847    -0.71400
O5          O  0.23405600  0.73012838  0.21723939    -0.71000
O6          O  0.24681572  0.80510033  0.25419935    -0.62200
O7          O  0.27845193  0.77228779  0.21847234    -0.74700
O8          O  0.20236580  0.76284934  0.25297816    -0.73500
Cu9        Cu  0.26333385  0.74309824  0.26812690     1.04600
Cu10       Cu  0.23967843  0.76840595  0.23464630     1.04300
C11         C  0.20141427  0.74961081  0.27420394     0.92800
C12         C  0.30154999  0.76194538  0.22859574     0.91900
C13         C  0.25995460  0.80533131  0.27567539     0.84100
C14         C  0.24299823  0.70629809  0.22692645     0.90400
N15         N  0.55900878  0.76315323  0.14073014    -0.27700
N16         N  0.54504630  0.75948628  0.16222071    -0.35600
C17         C  0.56435962  0.75577219  0.18118079     0.00600
C18         C  0.59194298  0.75726263  0.17127679     0.06600
C19         C  0.58770045  0.76202903  0.14553558    -0.06500
H20         H  0.55859111  0.75269626  0.20080350     0.07300
H21         H  0.60417029  0.76414827  0.13124139     0.08500
Cu22       Cu  0.50055572  0.76064907  0.16572656     0.44200
Cu23       Cu  0.53844496  0.76906887  0.10584487     0.42000
Cu24       Cu  0.46018618  0.77520769  0.10919638     0.43900
N25         N  0.45612312  0.76582839  0.16508684    -0.35100
N26         N  0.44135288  0.77162449  0.14413354    -0.29400
C27         C  0.41311319  0.77387521  0.14954100    -0.05500
C28         C  0.40981579  0.76926910  0.17530027     0.06700
C29         C  0.43767204  0.76421554  0.18452951     0.00500
H30         H  0.39633049  0.77799311  0.13551088     0.08200
H31         H  0.44423484  0.75968800  0.20387010     0.07300
N32         N  0.48279612  0.77574102  0.07589734    -0.36600
N33         N  0.51130259  0.77360409  0.07436687    -0.28800
C34         C  0.51868836  0.77422514  0.04977889    -0.04000
C35         C  0.49348091  0.77684417  0.03532786     0.04600
C36         C  0.47125638  0.77766657  0.05249864     0.02700
H37         H  0.54068399  0.77249183  0.04306980     0.07800
H38         H  0.44828961  0.77937431  0.04831464     0.06600
N39         N  0.55940050  0.78127904  0.85476637    -0.27700
N40         N  0.54481650  0.77457101  0.83390417    -0.35600
C41         C  0.56333546  0.77300425  0.81449684     0.00600
C42         C  0.59097043  0.77906003  0.82367286     0.06600
C43         C  0.58755358  0.78426656  0.84930338    -0.06500
H44         H  0.55708594  0.76742229  0.79527792     0.07300
H45         H  0.60435773  0.78865136  0.86326041     0.08500
Cu46       Cu  0.50071615  0.76694742  0.83341715     0.44200
Cu47       Cu  0.54086506  0.78356641  0.88992628     0.42000
Cu48       Cu  0.46350638  0.77138432  0.89383251     0.43900
N49         N  0.45642644  0.76284468  0.83740856    -0.35100
N50         N  0.44269678  0.76493687  0.85918099    -0.29400
C51         C  0.41401778  0.76259665  0.85473385    -0.05500
C52         C  0.40950936  0.75876484  0.82889999     0.06700
C53         C  0.43695741  0.75899288  0.81859116     0.00500
H54         H  0.39774391  0.76360003  0.86929564     0.08200
H55         H  0.44248911  0.75727201  0.79878206     0.07300
N56         N  0.49055102  0.77741751  0.92511908    -0.36600
N57         N  0.51877050  0.78179942  0.92347475    -0.28800
C58         C  0.53038179  0.78363904  0.94687026    -0.04000
C59         C  0.50847352  0.78033442  0.96413830     0.04600
C60         C  0.48340686  0.77645450  0.94973435     0.02700
H61         H  0.55322000  0.78666236  0.95098045     0.07800
H62         H  0.46171692  0.77254108  0.95646302     0.06600
N63         N  0.06137063  0.73288468  0.35778402    -0.27700
N64         N  0.04646489  0.73837604  0.33680748    -0.35600
C65         C  0.06505102  0.74272153  0.31775466     0.00600
C66         C  0.09307403  0.73966708  0.32724170     0.06600
C67         C  0.08978076  0.73351098  0.35273516    -0.06500
H68         H  0.05850834  0.74708387  0.29837244     0.07300
H69         H  0.10667025  0.72979431  0.36675841     0.08500
Cu70       Cu  0.00167029  0.73804766  0.33519384     0.44200
Cu71       Cu  0.04278520  0.72455166  0.39233633     0.42000
Cu72       Cu  0.96487786  0.72147539  0.39426786     0.43900
N73         N  0.95730806  0.73315519  0.33833080    -0.35100
N74         N  0.94389866  0.72679484  0.35959985    -0.29400
C75         C  0.91526225  0.72489262  0.35481779    -0.05500
C76         C  0.91035211  0.73039068  0.32927113     0.06700
C77         C  0.93762411  0.73549834  0.31948915     0.00500
H78         H  0.89927468  0.72026557  0.36906622     0.08200
H79         H  0.94301949  0.74038334  0.30007323     0.07300
N80         N  0.99132603  0.71807743  0.42618105    -0.36600
N81         N  0.01992204  0.71900958  0.42529330    -0.28800
C82         C  0.03088521  0.71697331  0.44892019    -0.04000
C83         C  0.00813983  0.71469242  0.46553096     0.04600
C84         C  0.98327662  0.71545220  0.45048779     0.02700
H85         H  0.05376196  0.71762802  0.45368549     0.07800
H86         H  0.96100828  0.71458651  0.45660515     0.06600
N87         N  0.93922320  0.72635509  0.64506058    -0.27700
N88         N  0.95443570  0.73227012  0.66578896    -0.35600
C89         C  0.93614276  0.73741489  0.68491939     0.00600
C90         C  0.90803560  0.73443801  0.67572639     0.06600
C91         C  0.91089711  0.72745560  0.65036333    -0.06500
H92         H  0.94291102  0.74251836  0.70411319     0.07300
H93         H  0.89374761  0.72382593  0.63656332     0.08500
Cu94       Cu  0.99919427  0.73233203  0.66695928     0.44200
Cu95       Cu  0.95714800  0.71783252  0.61029274     0.42000
Cu96       Cu  0.03513422  0.71749040  0.60737735     0.43900
N97         N  0.04361107  0.72906918  0.66320787    -0.35100
N98         N  0.05684703  0.72338628  0.64169022    -0.29400
C99         C  0.08564463  0.72262941  0.64604363    -0.05500
C100        C  0.09080227  0.72818936  0.67156874     0.06700
C101        C  0.06352417  0.73210975  0.68177558     0.00500
H102        H  0.10156104  0.71871793  0.63154725     0.08200
H103        H  0.05828663  0.73664226  0.70130598     0.07300
N104        N  0.00815887  0.71375543  0.57577480    -0.36600
N105        N  0.97956617  0.71362632  0.57697795    -0.28800
C106        C  0.96832199  0.71229607  0.55339547    -0.04000
C107        C  0.99089502  0.71164710  0.53648123     0.04600
C108        C  0.01591936  0.71254067  0.55131832     0.02700
H109        H  0.94537521  0.71265533  0.54888012     0.13400
H110        H  0.03811261  0.71299900  0.54497412     0.06600
O111        O  0.26864737  0.76742860  0.71645251    -0.73400
O112        O  0.25533604  0.69214178  0.75230426    -0.74400
O113        O  0.22396254  0.72536692  0.71556034    -0.63000
O114        O  0.29973247  0.73441674  0.75306804    -0.71400
O115        O  0.27734284  0.75775720  0.78398277    -0.71000
O116        O  0.20187490  0.74879433  0.74658277    -0.62200
O117        O  0.23301976  0.71543542  0.78327105    -0.74700
O118        O  0.24646087  0.79105071  0.74730658    -0.73500
Cu119      Cu  0.26266712  0.72900454  0.73327329     1.04600
Cu120      Cu  0.23885204  0.75406033  0.76633745     1.04300
C121        C  0.25974219  0.79118362  0.72616670     0.92800
C122        C  0.24246865  0.69183129  0.77362422     0.91900
C123        C  0.20088947  0.73592490  0.72511826     0.84100
C124        C  0.30052708  0.74744838  0.77447556     0.90400
N125        N  0.54870941  0.21664992  0.14494534    -0.27700
N126        N  0.53435061  0.21987465  0.16628383    -0.35600
C127        C  0.55338315  0.22170465  0.18571051     0.00600
C128        C  0.58117615  0.21941767  0.17620523     0.06600
C129        C  0.57730380  0.21615916  0.15024395    -0.06500
H130        H  0.54730179  0.22456062  0.20529089     0.07300
H131        H  0.59399465  0.21444523  0.13609585     0.08500
Cu132      Cu  0.48958665  0.22205826  0.16812890     0.44200
Cu133      Cu  0.52872982  0.21470864  0.10955196     0.42000
Cu134      Cu  0.44978025  0.21610134  0.10896444     0.43900
N135        N  0.44475881  0.22299778  0.16560467    -0.35100
N136        N  0.43004008  0.22025061  0.14408870    -0.29400
C137        C  0.40151977  0.22223723  0.14895737    -0.05500
C138        C  0.39810325  0.22666559  0.17479979     0.06700
C139        C  0.42609205  0.22696630  0.18467589     0.00500
H140        H  0.38462177  0.22148167  0.13457422     0.08200
H141        H  0.43257001  0.23000046  0.20427226     0.07300
N142        N  0.47488902  0.21549639  0.07641029    -0.36600
N143        N  0.50356713  0.21511623  0.07668944    -0.28800
C144        C  0.51309585  0.21546069  0.05268736    -0.04000
C145        C  0.48923837  0.21607040  0.03645662     0.04600
C146        C  0.46543964  0.21607794  0.05217269     0.02700
H147        H  0.53573244  0.21534511  0.04760225     0.07800
H148        H  0.44285309  0.21660268  0.04639547     0.06600
N149        N  0.57091095  0.22136267  0.85861930    -0.27700
N150        N  0.55611423  0.22283782  0.83704049    -0.35600
C151        C  0.57468043  0.22636384  0.81784435     0.00600
C152        C  0.60265070  0.22701524  0.82771071     0.06600
C153        C  0.59938095  0.22365456  0.85366337    -0.06500
H154        H  0.56817788  0.22844722  0.79815856     0.07300
H155        H  0.61633784  0.22385267  0.86801293     0.08500
Cu156      Cu  0.51129247  0.22086202  0.83452890     0.44200
Cu157      Cu  0.55131583  0.21830795  0.89385753     0.42000
Cu158      Cu  0.47218567  0.21582405  0.89306255     0.43900
N159        N  0.46647706  0.21917589  0.83624444    -0.35100
N160        N  0.45206340  0.21697497  0.85764070    -0.29400
C161        C  0.42345277  0.21708329  0.85233401    -0.05500
C162        C  0.41963807  0.21970079  0.82630472     0.06700
C163        C  0.44747870  0.22092780  0.81677299     0.00500
H164        H  0.40672069  0.21631829  0.86650083     0.08200
H165        H  0.45360188  0.22318516  0.79714997     0.07300
N166        N  0.49739893  0.21630459  0.92596100    -0.36600
N167        N  0.52607183  0.21712376  0.92629212    -0.28800
C168        C  0.53548380  0.21734551  0.95054348    -0.04000
C169        C  0.51167681  0.21666725  0.96622700     0.04600
C170        C  0.48784922  0.21601272  0.94996156     0.02700
H171        H  0.55805443  0.21801321  0.95635256     0.07800
H172        H  0.46521770  0.21534673  0.95502810     0.06600
N173        N  0.21657010  0.44796599  0.14240946    -0.27700
N174        N  0.21732005  0.46223867  0.16414055    -0.35600
C175        C  0.21998140  0.44316281  0.18328810     0.00600
C176        C  0.22089732  0.41538332  0.17319963     0.06600
C177        C  0.21863752  0.41936978  0.14716731    -0.06500
H178        H  0.22105872  0.44921818  0.20308897     0.07300
H179        H  0.21887996  0.40280591  0.13263825     0.08500
Cu180      Cu  0.21538209  0.50702595  0.16678662     0.44200
Cu181      Cu  0.21297898  0.46818590  0.10730186     0.42000
Cu182      Cu  0.20452289  0.54657044  0.10822990     0.43900
N183        N  0.21576618  0.55185636  0.16442393    -0.35100
N184        N  0.21144194  0.56636800  0.14312694    -0.29400
C185        C  0.21442931  0.59488853  0.14783809    -0.05500
C186        C  0.22112482  0.59856368  0.17336272     0.06700
C187        C  0.22170992  0.57070724  0.18322933     0.00500
H188        H  0.21279225  0.61155999  0.13348658     0.08200
H189        H  0.22637635  0.56441891  0.20259754     0.07300
N190        N  0.20449128  0.52189659  0.07529964    -0.36600
N191        N  0.20815778  0.49344222  0.07488247    -0.28800
C192        C  0.20899468  0.48445536  0.05061116    -0.04000
C193        C  0.20571439  0.50847021  0.03500940     0.04600
C194        C  0.20287382  0.53174798  0.05133649     0.02700
H195        H  0.21233518  0.46217543  0.04490838     0.07800
H196        H  0.20059083  0.55434955  0.04616907     0.06600
N197        N  0.22561092  0.55025046  0.85789161    -0.27700
N198        N  0.23033300  0.53618426  0.83647951    -0.35600
C199        C  0.23390830  0.55547871  0.81772542     0.00600
C200        C  0.23126939  0.58317257  0.82768549     0.06600
C201        C  0.22593388  0.57895089  0.85325011    -0.06500
H202        H  0.23798701  0.54960708  0.79823553     0.07300
H203        H  0.22301518  0.59546085  0.86758164     0.08500
Cu204      Cu  0.23224007  0.49146739  0.83329049     0.44200
Cu205      Cu  0.21982481  0.52981002  0.89259413     0.42000
Cu206      Cu  0.22197445  0.45148632  0.89126082     0.43900
N207        N  0.23404435  0.44667748  0.83540924    -0.35100
N208        N  0.23010087  0.43208079  0.85660973    -0.29400
C209        C  0.23262439  0.40357181  0.85178678    -0.05500
C210        C  0.23847882  0.39993221  0.82624762     0.06700
C211        C  0.23924215  0.42785426  0.81650774     0.00500
H212        H  0.23059694  0.38684624  0.86599918     0.08200
H213        H  0.24297842  0.43417029  0.79708759     0.07300
N214        N  0.21644161  0.47544059  0.92412809    -0.36600
N215        N  0.21574004  0.50410077  0.92472378    -0.28800
C216        C  0.21289194  0.51288486  0.94891786    -0.04000
C217        C  0.21176694  0.48849927  0.96426688     0.04600
C218        C  0.21408749  0.46522119  0.94787730     0.02700
H219        H  0.21221074  0.53535159  0.95479239     0.07800
H220        H  0.21448227  0.44247218  0.95289436     0.06600
N221        N  0.05083410  0.29080567  0.35817602    -0.27700
N222        N  0.03633397  0.28554876  0.33688797    -0.35600
C223        C  0.05530129  0.28153414  0.31803273     0.00600
C224        C  0.08322172  0.28437321  0.32781594     0.06600
C225        C  0.07941934  0.29035200  0.35336366    -0.06500
H226        H  0.04906585  0.27665530  0.29866835     0.07300
H227        H  0.09615718  0.29334492  0.36765861     0.08500
Cu228      Cu  0.99143768  0.28284067  0.33425774     0.44200
Cu229      Cu  0.03135062  0.29701541  0.39318725     0.42000
Cu230      Cu  0.95297270  0.29550057  0.39221884     0.43900
N231        N  0.94660526  0.28066472  0.33687708    -0.35100
N232        N  0.93258168  0.28572079  0.35811535    -0.29400
C233        C  0.90399251  0.28242948  0.35385454    -0.05500
C234        C  0.89966999  0.27479607  0.32866415     0.06700
C235        C  0.92727606  0.27388402  0.31850784     0.00500
H236        H  0.88768858  0.28482511  0.36826905     0.08200
H237        H  0.93300150  0.26877054  0.29918978     0.07300
N238        N  0.97756926  0.30164410  0.42484621    -0.36600
N239        N  0.00623097  0.30183742  0.42547256    -0.28800
C240        C  0.01528275  0.30441753  0.44975245    -0.04000
C241        C  0.99103994  0.30591503  0.46505788     0.04600
C242        C  0.96762172  0.30417228  0.44857942     0.02700
H243        H  0.03779455  0.30446669  0.45572596     0.07800
H244        H  0.94493713  0.30380127  0.45355697     0.06600
N245        N  0.94909406  0.28838595  0.64239174    -0.27700
N246        N  0.96336892  0.28291957  0.66376609    -0.35600
C247        C  0.94419936  0.27915095  0.68247427     0.00600
C248        C  0.91637519  0.28239905  0.67256651     0.06600
C249        C  0.92042795  0.28834747  0.64704950    -0.06500
H250        H  0.95023478  0.27430509  0.70188648     0.07300
H251        H  0.90378708  0.29169232  0.63271984     0.08500
Cu252      Cu  0.00830654  0.27986233  0.66700142     0.44200
Cu253      Cu  0.96916834  0.29449024  0.60756153     0.42000
Cu254      Cu  0.04731188  0.28885317  0.60895058     0.43900
N255        N  0.05326027  0.27709795  0.66484472    -0.35100
N256        N  0.06731675  0.28046240  0.64339402    -0.29400
C257        C  0.09589692  0.27753449  0.64781997    -0.05500
C258        C  0.10029691  0.27201845  0.67339111     0.06700
C259        C  0.07265269  0.27184886  0.68358713     0.00500
H260        H  0.11215886  0.27901629  0.63329208     0.08200
H261        H  0.06696520  0.26839152  0.70317719     0.07300
N262        N  0.02349428  0.29691819  0.57630830    -0.36600
N263        N  0.99489907  0.29885439  0.57553912    -0.28800
C264        C  0.98627727  0.30294176  0.55131318    -0.04000
C265        C  0.01072351  0.30359259  0.53620041     0.04600
C266        C  0.03383614  0.29978351  0.55274240     0.02700
H267        H  0.96386658  0.30465257  0.54523101     0.07800
H268        H  0.05653080  0.29839893  0.54791823     0.06600
N269        N  0.28501716  0.94788821  0.35775527    -0.27700
N270        N  0.27801769  0.96184559  0.33666896    -0.35600
C271        C  0.27289511  0.94239480  0.31815011     0.00600
C272        C  0.27691599  0.91476005  0.32795495     0.06600
C273        C  0.28468063  0.91917389  0.35314929    -0.06500
H274        H  0.26672499  0.94809373  0.29894569     0.07300
H275        H  0.28902919  0.90276479  0.36733615     0.08500
Cu276      Cu  0.27528304  0.00668754  0.33379727     0.44200
Cu277      Cu  0.29307895  0.96833273  0.39223124     0.42000
Cu278      Cu  0.28951810  0.04646732  0.39168926     0.43900
N279        N  0.27459309  0.05164257  0.33617177    -0.35100
N280        N  0.28025119  0.06602965  0.35732624    -0.29400
C281        C  0.27793772  0.09461133  0.35284985    -0.05500
C282        C  0.27032506  0.09857839  0.32760401     0.06700
C283        C  0.26840591  0.07076106  0.31762613     0.00500
H284        H  0.28095177  0.11116513  0.36717727     0.08200
H285        H  0.26298629  0.06473876  0.29832446     0.07300
N286        N  0.29562134  0.02238421  0.42431809    -0.36600
N287        N  0.29698449  0.99375201  0.42461319    -0.28800
C288        C  0.29963429  0.98474044  0.44877725    -0.04000
C289        C  0.29990464  0.00896552  0.46439780     0.04600
C290        C  0.29734931  0.03238817  0.44822685     0.02700
H291        H  0.30056271  0.96221944  0.45442418     0.07800
H292        H  0.29615126  0.05504914  0.45348578     0.06600
N293        N  0.28724661  0.04967809  0.64095870    -0.27700
N294        N  0.28198785  0.03568953  0.66223694    -0.35600
C295        C  0.27835258  0.05508782  0.68098182     0.00600
C296        C  0.28151234  0.08276444  0.67107642     0.06600
C297        C  0.28717481  0.07837013  0.64558384    -0.06500
H298        H  0.27389904  0.04929601  0.70040081     0.07300
H299        H  0.29053797  0.09473831  0.63126110     0.08500
Cu300      Cu  0.28026666  0.99084832  0.66478726     0.44200
Cu301      Cu  0.29377062  0.02895423  0.60662041     0.42000
Cu302      Cu  0.29681762  0.95018818  0.60789107     0.43900
N303        N  0.28134776  0.94592416  0.66309305    -0.35100
N304        N  0.28789920  0.93110434  0.64248549    -0.29400
C305        C  0.28659952  0.90260090  0.64766906    -0.05500
C306        C  0.27877891  0.89918922  0.67281498     0.06700
C307        C  0.27565827  0.92725224  0.68193254     0.00500
H308        H  0.29050787  0.88571534  0.63387836     0.08200
H309        H  0.26975883  0.93381006  0.70086896     0.07300
N310        N  0.30037743  0.97468156  0.57515577    -0.36600
N311        N  0.29892488  0.00332170  0.57468902    -0.28800
C312        C  0.30009710  0.01238307  0.55051100    -0.04000
C313        C  0.30237726  0.98822252  0.53499721     0.04600
C314        C  0.30255753  0.96475876  0.55127279     0.02700
H315        H  0.29872914  0.03486341  0.54479923     0.07800
H316        H  0.30338069  0.94206065  0.54608305     0.06600
O317        O  0.23408526  0.26017043  0.71416370    -0.73400
O318        O  0.31017570  0.24732888  0.75051241    -0.74400
O319        O  0.27738418  0.21597397  0.71369093    -0.63000
O320        O  0.26695317  0.29138414  0.75087816    -0.71400
O321        O  0.24441179  0.26820550  0.78168761    -0.71000
O322        O  0.25452872  0.19311250  0.74449157    -0.62200
O323        O  0.28736708  0.22422459  0.78120219    -0.74700
O324        O  0.21138645  0.23732409  0.74506299    -0.73500
Cu325      Cu  0.27294641  0.25450745  0.73121476     1.04600
Cu326      Cu  0.24863394  0.22989707  0.76413103     1.04300
C327        C  0.21061862  0.25103840  0.72402217     0.92800
C328        C  0.31081100  0.23380713  0.77166781     0.91900
C329        C  0.26769808  0.19252809  0.72331918     0.84100
C330        C  0.25404907  0.29171861  0.77218965     0.90400
O331        O  0.26681624  0.23863052  0.21842192    -0.73400
O332        O  0.19204701  0.25256707  0.25467747    -0.74400
O333        O  0.22429563  0.28328645  0.21783959    -0.63000
O334        O  0.23493592  0.20807740  0.25527869    -0.71400
O335        O  0.25895304  0.23117724  0.28582771    -0.71000
O336        O  0.24784456  0.30634993  0.24868758    -0.62200
O337        O  0.21578576  0.27543336  0.28550971    -0.74700
O338        O  0.29085980  0.26179012  0.24890886    -0.73500
Cu339      Cu  0.22867331  0.24486061  0.23551876     1.04600
Cu340      Cu  0.25417568  0.26951060  0.26830642     1.04300
C341        C  0.29070803  0.24782324  0.22792494     0.92800
C342        C  0.19197994  0.26618835  0.27580108     0.91900
C343        C  0.23439335  0.30676125  0.22735816     0.84100
C344        C  0.24894378  0.20766732  0.27634399     0.90400
O345        O  0.69087296  0.24626359  0.25143887    -0.73400
O346        O  0.76657825  0.25970832  0.28769255    -0.74400
O347        O  0.73365934  0.29047358  0.25082019    -0.63000
O348        O  0.72384217  0.21528924  0.28824556    -0.71400
O349        O  0.74673201  0.19231369  0.25741716    -0.71000
O350        O  0.75663542  0.26719352  0.22021212    -0.62200
O351        O  0.78965218  0.23653167  0.25708919    -0.74700
O352        O  0.71376865  0.22317898  0.22067695    -0.73500
Cu353      Cu  0.72793928  0.25372777  0.27062871     1.04600
Cu354      Cu  0.75250308  0.22898042  0.23781484     1.04300
C355        C  0.69027637  0.23265972  0.23031189     0.92800
C356        C  0.79015931  0.25048363  0.27805873     0.91900
C357        C  0.74674388  0.29072658  0.22959033     0.84100
C358        C  0.73360906  0.19181489  0.27860128     0.90400
N359        N  0.76628811  0.43042851  0.14410993    -0.27700
N360        N  0.76404162  0.44512797  0.16550399    -0.35600
C361        C  0.76029984  0.42641250  0.18469597     0.00600
C362        C  0.76034454  0.39848097  0.17493767     0.06600
C363        C  0.76421199  0.40193639  0.14909931    -0.06500
H364        H  0.75819891  0.43276013  0.20433424     0.07300
H365        H  0.76518039  0.38507894  0.13485594     0.08500
Cu366      Cu  0.76699285  0.48985179  0.16760578     0.44200
Cu367      Cu  0.77201132  0.44984432  0.10918767     0.42000
Cu368      Cu  0.78105678  0.52804132  0.10901347     0.43900
N369        N  0.77157478  0.53440622  0.16509955    -0.35100
N370        N  0.77701062  0.54840433  0.14385348    -0.29400
C371        C  0.77803725  0.57703111  0.14872827    -0.05500
C372        C  0.77290131  0.58133098  0.17432969     0.06700
C373        C  0.76896420  0.55369092  0.18403689     0.00500
H374        H  0.78146130  0.59344695  0.13445900     0.08200
H375        H  0.76432741  0.54782047  0.20340013     0.07300
N376        N  0.78113261  0.50259645  0.07659229    -0.36600
N377        N  0.77761979  0.47414478  0.07666629    -0.28800
C378        C  0.77795316  0.46434805  0.05266201    -0.04000
C379        C  0.78185815  0.48770794  0.03670836     0.04600
C380        C  0.78380403  0.51167335  0.05252732     0.02700
H381        H  0.77534844  0.44185829  0.04721608     0.07800
H382        H  0.78666090  0.53408841  0.04711966     0.06600
N383        N  0.78357601  0.56795815  0.85903021    -0.27700
N384        N  0.77855917  0.55362761  0.83772573    -0.35600
C385        C  0.77408901  0.57272244  0.81886126     0.00600
C386        C  0.77634198  0.60054419  0.82870538     0.06600
C387        C  0.78248068  0.59658535  0.85428034    -0.06500
H388        H  0.76927456  0.56660807  0.79947065     0.07300
H389        H  0.78501025  0.61317619  0.86864247     0.08500
Cu390      Cu  0.77664206  0.50882788  0.83517635     0.44200
Cu391      Cu  0.78920019  0.54805462  0.89391560     0.42000
Cu392      Cu  0.78216865  0.46964734  0.89399439     0.43900
N393        N  0.77560260  0.46398057  0.83742362    -0.35100
N394        N  0.77794049  0.44962741  0.85900610    -0.29400
C395        C  0.77704811  0.42101324  0.85416934    -0.05500
C396        C  0.77389742  0.41707483  0.82822535     0.06700
C397        C  0.77300458  0.44488529  0.81824687     0.00500
H398        H  0.77832019  0.40438786  0.86858689     0.08200
H399        H  0.77104535  0.45091082  0.79849106     0.07300
N400        N  0.78599512  0.49456441  0.92653653    -0.36600
N401        N  0.78893156  0.52308250  0.92650563    -0.28800
C402        C  0.78997400  0.53262434  0.95058526    -0.04000
C403        C  0.78750815  0.50903516  0.96652531     0.04600
C404        C  0.78506116  0.48518954  0.95063134     0.02700
H405        H  0.79177494  0.55517627  0.95607939     0.07800
H406        H  0.78237212  0.46273564  0.95598674     0.06600
N407        N  0.71237712  0.04871182  0.35967376    -0.27700
N408        N  0.71647007  0.03480757  0.33810179    -0.35600
C409        C  0.72025820  0.05432843  0.31952875     0.00600
C410        C  0.71845038  0.08195945  0.32989349     0.06600
C411        C  0.71338174  0.07742943  0.35543488    -0.06500
H412        H  0.72402710  0.04866615  0.29994493     0.07300
H413        H  0.71115856  0.09369900  0.37006934     0.08500
Cu414      Cu  0.71711693  0.98992696  0.33508854     0.44200
Cu415      Cu  0.70651766  0.02806559  0.39402152     0.42000
Cu416      Cu  0.70347055  0.94958706  0.39281071     0.43900
N417        N  0.71646365  0.94497884  0.33702358    -0.35100
N418        N  0.71102477  0.93026979  0.35791147    -0.29400
C419        C  0.71259063  0.90172330  0.35279610    -0.05500
C420        C  0.71946282  0.89818325  0.32743046     0.06700
C421        C  0.72171664  0.92619892  0.31809908     0.00500
H422        H  0.70965719  0.88488283  0.36677559     0.08200
H423        H  0.72683774  0.93264004  0.29897121     0.07300
N424        N  0.70083476  0.97413501  0.42573594    -0.36600
N425        N  0.70223022  0.00276907  0.42612908    -0.28800
C426        C  0.70177473  0.01199254  0.45030962    -0.04000
C427        C  0.70003342  0.98793906  0.46593312     0.04600
C428        C  0.69941261  0.96436936  0.44970131     0.02700
H429        H  0.70331920  0.03449499  0.45593622     0.07800
H430        H  0.69882491  0.94169536  0.45496771     0.06600
N431        N  0.72559242  0.06686621  0.64344427    -0.27700
N432        N  0.73149969  0.05251701  0.66453912    -0.35600
C433        C  0.73724009  0.07158110  0.68322444     0.00600
C434        C  0.73475708  0.09938238  0.67342930     0.06600
C435        C  0.72731805  0.09545155  0.64811717    -0.06500
H436        H  0.74253642  0.06551093  0.70253044     0.07300
H437        H  0.72382297  0.11203733  0.63392441     0.08500
Cu438      Cu  0.73116347  0.00778754  0.66686784     0.44200
Cu439      Cu  0.71623748  0.04712105  0.60906985     0.42000
Cu440      Cu  0.71328682  0.96908813  0.60851922     0.43900
N441        N  0.72802269  0.96319058  0.66413159    -0.35100
N442        N  0.72115913  0.94909673  0.64307968    -0.29400
C443        C  0.72123724  0.92046769  0.64784731    -0.05500
C444        C  0.72862482  0.91628805  0.67314017     0.06700
C445        C  0.73271261  0.94395433  0.68282682     0.00500
H446        H  0.71688442  0.90399567  0.63370274     0.08200
H447        H  0.73864738  0.94987418  0.70203777     0.07300
N448        N  0.70871043  0.99424716  0.57619259    -0.36600
N449        N  0.70976111  0.02288609  0.57644513    -0.28800
C450        C  0.70726386  0.03273698  0.55254601    -0.04000
C451        C  0.70453909  0.00919967  0.53645420     0.04600
C452        C  0.70552599  0.98507341  0.55210621     0.02700
H453        H  0.70797300  0.05538890  0.54722498     0.07800
H454        H  0.70460060  0.96252010  0.54653164     0.06600
O455        O  0.75118905  0.30720023  0.75288470    -0.73400
O456        O  0.74156525  0.23166511  0.71625813    -0.74400
O457        O  0.70910159  0.26213694  0.75304701    -0.63000
O458        O  0.78389178  0.27641199  0.71611007    -0.71400
O459        O  0.80797815  0.25397589  0.74697674    -0.71000
O460        O  0.73359611  0.23972913  0.78369503    -0.62200
O461        O  0.76585869  0.20911190  0.74696714    -0.74700
O462        O  0.77540494  0.28488397  0.78376579    -0.73500
Cu463      Cu  0.74560717  0.27016271  0.73351170     1.04600
Cu464      Cu  0.77158242  0.24618673  0.76640653     1.04300
C465        C  0.76466442  0.30805385  0.77418043     0.92800
C466        C  0.75200227  0.20838857  0.72583877     0.91900
C467        C  0.70952593  0.24847180  0.77415330     0.84100
C468        C  0.80781939  0.26724181  0.72570189     0.90400
O469        O  0.73184608  0.76623102  0.28403416    -0.73400
O470        O  0.74705248  0.69103093  0.24849586    -0.74400
O471        O  0.77753930  0.72500043  0.28499881    -0.63000
O472        O  0.70160107  0.73247557  0.24738117    -0.71400
O473        O  0.72369493  0.75618708  0.21662403    -0.71000
O474        O  0.79924547  0.74839953  0.25385142    -0.62200
O475        O  0.76878726  0.71439537  0.21735273    -0.74700
O476        O  0.75383924  0.79000949  0.25327428    -0.73500
Cu477      Cu  0.73876757  0.72784040  0.26729642     1.04600
Cu478      Cu  0.76218336  0.75305608  0.23421498     1.04300
C479        C  0.74037517  0.79006546  0.27433568     0.92800
C480        C  0.76004258  0.69070950  0.22724321     0.91900
C481        C  0.80044610  0.73568599  0.27533994     0.84100
C482        C  0.70065429  0.74559634  0.22603975     0.90400
O483        O  0.75644737  0.80729077  0.74774168    -0.73400
O484        O  0.76699367  0.73268076  0.78542381    -0.74400
O485        O  0.79971012  0.76376483  0.74948046    -0.63000
O486        O  0.72353150  0.77632368  0.78346194    -0.71400
O487        O  0.70133760  0.75267017  0.75217216    -0.71000
O488        O  0.77705793  0.74032913  0.71831109    -0.62200
O489        O  0.74470144  0.70909653  0.75416370    -0.74700
O490        O  0.73392799  0.78393982  0.71646373    -0.73500
Cu491      Cu  0.76244257  0.77083164  0.76763467     1.04600
Cu492      Cu  0.73847078  0.74568268  0.73420763     1.04300
C493        C  0.74352057  0.80750445  0.72618456     0.92800
C494        C  0.75772104  0.70900296  0.77570332     0.91900
C495        C  0.80037514  0.75007000  0.72842013     0.84100
C496        C  0.70033353  0.76655085  0.77309758     0.90400
C497        C  0.75387533  0.12810625  0.71043032    -0.13800
C498        C  0.73920240  0.12723970  0.68692860     0.08300
C499        C  0.72885724  0.15329681  0.67636269    -0.13800
C500        C  0.73307243  0.17960815  0.68898353    -0.13800
C501        C  0.74780541  0.18049162  0.71243860     0.08300
C502        C  0.75817551  0.15446141  0.72303121    -0.13800
H503        H  0.76234080  0.10850316  0.71903114     0.12300
H504        H  0.71720141  0.15344475  0.65844127     0.12300
H505        H  0.72471608  0.19926622  0.68034775     0.12300
H506        H  0.76960361  0.15442085  0.74108956     0.12300
C507        C  0.74688555  0.88737188  0.71021113    -0.13800
C508        C  0.73226575  0.88838785  0.68669961     0.08300
C509        C  0.72137162  0.86249143  0.67624049    -0.13800
C510        C  0.72501166  0.83618450  0.68902748    -0.13800
C511        C  0.73965154  0.83523064  0.71252341     0.08300
C512        C  0.75054978  0.86110396  0.72296088    -0.13800
H513        H  0.75584531  0.90678045  0.71874115     0.12300
H514        H  0.70979998  0.86248498  0.65827635     0.12300
H515        H  0.71629975  0.81661475  0.68052014     0.12300
H516        H  0.76199899  0.86109746  0.74101014     0.12300
C517        C  0.73814676  0.87041317  0.28994650    -0.13800
C518        C  0.72432880  0.87055267  0.31357204     0.08300
C519        C  0.71549951  0.84397776  0.32395385    -0.13800
C520        C  0.72055503  0.81792287  0.31114241    -0.13800
C521        C  0.73464051  0.81778061  0.28765923     0.08300
C522        C  0.74327989  0.84433693  0.27716378    -0.13800
H523        H  0.74543696  0.89038194  0.28140361     0.12300
H524        H  0.70453877  0.84320448  0.34195007     0.12300
H525        H  0.71350880  0.79785562  0.31972895     0.12300
H526        H  0.75415809  0.84499480  0.25909892     0.12300
C527        C  0.70063053  0.98666315  0.49391616    -0.16900
C528        C  0.70256533  0.01050152  0.50851360    -0.32100
H529        H  0.69996266  0.96534414  0.50260124     0.12100
H530        H  0.70317459  0.03182460  0.49983507     0.12700
C531        C  0.78186190  0.36333253  0.82545075    -0.13800
C532        C  0.77193725  0.38922366  0.81425717     0.08300
C533        C  0.75999560  0.38822995  0.78964248    -0.13800
C534        C  0.75774730  0.36190014  0.77661841    -0.13800
C535        C  0.76758154  0.33599153  0.78784192     0.08300
C536        C  0.77980298  0.33702046  0.81235608    -0.13800
H537        H  0.79145559  0.36335863  0.84427504     0.12300
H538        H  0.75194166  0.40770893  0.78052992     0.12300
H539        H  0.74820891  0.36185552  0.75775578     0.12300
H540        H  0.78760122  0.31745428  0.82152764     0.12300
C541        C  0.78030016  0.65477033  0.82619039    -0.13800
C542        C  0.77172924  0.62834656  0.81511370     0.08300
C543        C  0.75842158  0.62875956  0.79099220    -0.13800
C544        C  0.75373376  0.65494008  0.77828408    -0.13800
C545        C  0.76232304  0.68132757  0.78935222     0.08300
C546        C  0.77568916  0.68096219  0.81343728    -0.13800
H547        H  0.79081052  0.65530058  0.84463261     0.12300
H548        H  0.75127420  0.60892312  0.78193473     0.12300
H549        H  0.74340162  0.65447158  0.75974070     0.12300
H550        H  0.78264297  0.70092624  0.82245862     0.12300
C551        C  0.78004157  0.63533425  0.17704697    -0.13800
C552        C  0.77058435  0.60932326  0.18810427     0.08300
C553        C  0.75838678  0.61035081  0.21237593    -0.13800
C554        C  0.75534563  0.63670878  0.22512509    -0.13800
C555        C  0.76447073  0.66274122  0.21397458     0.08300
C556        C  0.77705218  0.66175565  0.18985916    -0.13800
H557        H  0.78977463  0.63537974  0.15849525     0.12300
H558        H  0.75064599  0.59089729  0.22148143     0.12300
H559        H  0.74553879  0.63668023  0.24367224     0.12300
H560        H  0.78433332  0.68143343  0.18075803     0.12300
C561        C  0.78307752  0.48643763  0.00878807    -0.16900
C562        C  0.78669265  0.51017878  0.99445885    -0.32100
H563        H  0.78078527  0.46529778  0.99992936     0.12100
H564        H  0.78892383  0.53132029  0.00332368     0.12700
C565        C  0.74101634  0.34467577  0.22628794    -0.13800
C566        C  0.75045139  0.31834649  0.21574423     0.08300
C567        C  0.76339961  0.31863423  0.19176428    -0.13800
C568        C  0.76659539  0.34463455  0.17852537    -0.13800
C569        C  0.75709213  0.37095108  0.18903845     0.08300
C570        C  0.74438485  0.37070783  0.21311046    -0.13800
H571        H  0.73096784  0.34519114  0.24472943     0.12300
H572        H  0.77098326  0.29873307  0.18313810     0.12300
H573        H  0.77676535  0.34408982  0.16015423     0.12300
H574        H  0.73663418  0.39056195  0.22166765     0.12300
C575        C  0.71707317  0.16277554  0.31594291    -0.13800
C576        C  0.72962253  0.16382558  0.29182895     0.08300
C577        C  0.73821881  0.13775603  0.28028603    -0.13800
C578        C  0.73441218  0.11124059  0.29255877    -0.13800
C579        C  0.72202796  0.11013499  0.31673872     0.08300
C580        C  0.71338023  0.13622616  0.32828818    -0.13800
H581        H  0.71014609  0.18247111  0.32531790     0.12300
H582        H  0.74791456  0.13779069  0.26169250     0.12300
H583        H  0.74155702  0.09168376  0.28314381     0.12300
H584        H  0.70353350  0.13621676  0.34679432     0.12300
C585        C  0.26574787  0.11206676  0.70860248    -0.13800
C586        C  0.27864847  0.11086322  0.68462417     0.08300
C587        C  0.28837775  0.13680602  0.67362258    -0.13800
C588        C  0.28500895  0.16332325  0.68620061    -0.13800
C589        C  0.27173986  0.16450214  0.71002219     0.08300
C590        C  0.26229285  0.13854730  0.72111513    -0.13800
H591        H  0.25782408  0.09263709  0.71763526     0.12300
H592        H  0.29869830  0.13671213  0.65531879     0.12300
H593        H  0.29266465  0.18291115  0.67719004     0.12300
H594        H  0.25206046  0.13866137  0.73948241     0.12300
C595        C  0.24936107  0.12725171  0.29133983    -0.13800
C596        C  0.26479368  0.12648828  0.31446457     0.08300
C597        C  0.27472583  0.15270450  0.32504848    -0.13800
C598        C  0.26941944  0.17905160  0.31276539    -0.13800
C599        C  0.25397730  0.17981044  0.28964370     0.08300
C600        C  0.24396102  0.15362142  0.27909402    -0.13800
H601        H  0.24116123  0.10753108  0.28275938     0.12300
H602        H  0.28691821  0.15293852  0.34270055     0.12300
H603        H  0.27755365  0.19882080  0.32135403     0.12300
H604        H  0.23201326  0.15345602  0.26129141     0.12300
C605        C  0.30092490  0.01047170  0.49235314    -0.16900
C606        C  0.30273298  0.98674198  0.50703646    -0.32100
H607        H  0.29969416  0.03182713  0.50094724     0.12100
H608        H  0.30399017  0.96538864  0.49843796     0.12700
C609        C  0.12960282  0.25417985  0.71072931    -0.13800
C610        C  0.12847875  0.26708410  0.68661789     0.08300
C611        C  0.15463759  0.27492355  0.67505061    -0.13800
C612        C  0.18125915  0.26977843  0.68719044    -0.13800
C613        C  0.18239316  0.25655105  0.71115452     0.08300
C614        C  0.15625537  0.24889667  0.72282334    -0.13800
H615        H  0.10994512  0.24773100  0.72015912     0.12300
H616        H  0.15466023  0.28523667  0.65664405     0.12300
H617        H  0.20096950  0.27609218  0.67773350     0.12300
H618        H  0.15636189  0.23878338  0.74134174     0.12300
C619        C  0.88776588  0.26439857  0.70954611    -0.13800
C620        C  0.88851347  0.27900519  0.68618464     0.08300
C621        C  0.86240733  0.29002675  0.67598446    -0.13800
C622        C  0.83621986  0.28646637  0.68884074    -0.13800
C623        C  0.83552315  0.27168848  0.71214184     0.08300
C624        C  0.86164503  0.26075055  0.72231849    -0.13800
H625        H  0.90730679  0.25533049  0.71789622     0.12300
H626        H  0.86218212  0.30157711  0.65813757     0.12300
H627        H  0.81651114  0.29520606  0.68047482     0.12300
H628        H  0.86193919  0.24916503  0.74016475     0.12300
C629        C  0.13735781  0.28985709  0.32509600    -0.13800
C630        C  0.11102794  0.28033914  0.31425941     0.08300
C631        C  0.11159982  0.26644101  0.29052306    -0.13800
C632        C  0.13783191  0.26189130  0.27808466    -0.13800
C633        C  0.16416826  0.27124230  0.28899612     0.08300
C634        C  0.16360183  0.28540624  0.31260018    -0.13800
H635        H  0.13777005  0.30087746  0.34321573     0.12300
H636        H  0.09185517  0.25859798  0.28163944     0.12300
H637        H  0.13745406  0.25092512  0.25991694     0.12300
H638        H  0.18347219  0.29298165  0.32150222     0.12300
C639        C  0.84540678  0.27793792  0.32615504    -0.13800
C640        C  0.87166561  0.26849228  0.31567733     0.08300
C641        C  0.87086299  0.25286779  0.29278033    -0.13800
C642        C  0.84441040  0.24679377  0.28067112    -0.13800
C643        C  0.81817136  0.25632058  0.29112772     0.08300
C644        C  0.81898443  0.27197101  0.31400680    -0.13800
H645        H  0.84519805  0.29026366  0.34362075     0.12300
H646        H  0.89062994  0.24503604  0.28428778     0.12300
H647        H  0.84454305  0.23468919  0.26306576     0.12300
H648        H  0.79918447  0.27974567  0.32252420     0.12300
C649        C  0.98926369  0.30670105  0.49302241    -0.16900
C650        C  0.01274444  0.30553572  0.50828729    -0.32100
H651        H  0.96777156  0.30713670  0.50115566     0.12100
H652        H  0.03424082  0.30487819  0.50016702     0.12700
C653        C  0.23445812  0.34577316  0.82336878    -0.13800
C654        C  0.24267495  0.37223829  0.81240546     0.08300
C655        C  0.25477113  0.37195422  0.78806818    -0.13800
C656        C  0.25855096  0.34582627  0.77502278    -0.13800
C657        C  0.25021547  0.31941290  0.78598025     0.08300
C658        C  0.23812172  0.31968764  0.81029203    -0.13800
H659        H  0.22484358  0.34511149  0.84195564     0.12300
H660        H  0.26157201  0.39185563  0.77909808     0.12300
H661        H  0.26795159  0.34634484  0.75631871     0.12300
H662        H  0.23146371  0.29971120  0.81927283     0.12300
C663        C  0.21725887  0.36107932  0.17530221    -0.13800
C664        C  0.22403572  0.38758054  0.18716501     0.08300
C665        C  0.23398825  0.38723640  0.21246953    -0.13800
C666        C  0.23734374  0.36102142  0.22549777    -0.13800
C667        C  0.23059684  0.33454393  0.21360755     0.08300
C668        C  0.22038425  0.33487875  0.18840255    -0.13800
H669        H  0.20929200  0.36050418  0.15593093     0.12300
H670        H  0.23962093  0.40716188  0.22218078     0.12300
H671        H  0.24521175  0.36151550  0.24492239     0.12300
H672        H  0.21500188  0.31485194  0.17869925     0.12300
C673        C  0.20665822  0.51017134  0.00702510    -0.16900
C674        C  0.20982384  0.48667864  0.99219460    -0.32100
H675        H  0.20494504  0.53154057  0.99852852     0.12100
H676        H  0.21119124  0.46527227  0.00066010     0.12700
C677        C  0.36586699  0.21247047  0.82237907    -0.13800
C678        C  0.39190474  0.22244146  0.81197777     0.08300
C679        C  0.39112705  0.23561656  0.78796135    -0.13800
C680        C  0.36484794  0.23916360  0.77482198    -0.13800
C681        C  0.33876248  0.22942077  0.78531114     0.08300
C682        C  0.33960320  0.21582648  0.80915835    -0.13800
H683        H  0.36575324  0.20197618  0.84071998     0.12300
H684        H  0.41073190  0.24376839  0.77948040     0.12300
H685        H  0.36496672  0.24972853  0.75650015     0.12300
H686        H  0.31991241  0.20799148  0.81774981     0.12300
C687        C  0.65664244  0.22258744  0.82386775    -0.13800
C688        C  0.62991323  0.23188770  0.81371872     0.08300
C689        C  0.62950688  0.24633315  0.79025850    -0.13800
C690        C  0.65530456  0.25174484  0.77741509    -0.13800
C691        C  0.68208907  0.24262263  0.78764065     0.08300
C692        C  0.68241862  0.22778086  0.81093367    -0.13800
H693        H  0.65765426  0.21114636  0.84176489     0.12300
H694        H  0.60930327  0.25398519  0.78200543     0.12300
H695        H  0.65425619  0.26318360  0.75951011     0.12300
H696        H  0.70264434  0.22029315  0.81928890     0.12300
C697        C  0.34395115  0.22304684  0.17797598    -0.13800
C698        C  0.37067472  0.23154078  0.18865388     0.08300
C699        C  0.37090008  0.24513978  0.21254478    -0.13800
C700        C  0.34499131  0.25045693  0.22529210    -0.13800
C701        C  0.31825215  0.24212899  0.21452799     0.08300
C702        C  0.31806490  0.22818545  0.19079197    -0.13800
H703        H  0.34298549  0.21226452  0.15974996     0.12300
H704        H  0.39104091  0.25217638  0.22127449     0.12300
H705        H  0.34592366  0.26116789  0.24356528     0.12300
H706        H  0.29786359  0.22135259  0.18200040     0.12300
C707        C  0.63482661  0.21111002  0.18006426    -0.13800
C708        C  0.60895386  0.22163860  0.19048449     0.08300
C709        C  0.60995273  0.23495242  0.21445514    -0.13800
C710        C  0.63630523  0.23824284  0.22746786    -0.13800
C711        C  0.66225810  0.22815225  0.21687952     0.08300
C712        C  0.66118964  0.21425442  0.19315361    -0.13800
H713        H  0.63475714  0.20043653  0.16177757     0.12300
H714        H  0.59048984  0.24348314  0.22297689     0.12300
H715        H  0.63635711  0.24900192  0.24573034     0.12300
H716        H  0.68077660  0.20609781  0.18453460     0.12300
C717        C  0.48840052  0.21654439  0.00839825    -0.16900
C718        C  0.51249988  0.21653086  0.99428717    -0.32100
H719        H  0.46721148  0.21681964  0.99923144     0.12100
H720        H  0.53368938  0.21638953  0.00345412     0.12700
C721        C  0.27857633  0.81902692  0.68913607    -0.13800
C722        C  0.26483134  0.81888673  0.71275935     0.08300
C723        C  0.25595310  0.84540759  0.72330240    -0.13800
C724        C  0.26060222  0.87146704  0.71043833    -0.13800
C725        C  0.27418337  0.87160119  0.68670202     0.08300
C726        C  0.28317193  0.84504305  0.67626380    -0.13800
H727        H  0.28576067  0.79898229  0.68049948     0.12300
H728        H  0.24530723  0.84604939  0.74147871     0.12300
H729        H  0.25320720  0.89141123  0.71904644     0.12300
H730        H  0.29393823  0.84422162  0.65817979     0.12300
C731        C  0.25025702  0.63820930  0.77720967    -0.13800
C732        C  0.23903907  0.66403925  0.78734727     0.08300
C733        C  0.22528588  0.66309925  0.81097021    -0.13800
C734        C  0.22284589  0.63690066  0.82414611    -0.13800
C735        C  0.23398679  0.61106259  0.81393091     0.08300
C736        C  0.24773026  0.61205231  0.79031851    -0.13800
H737        H  0.26117092  0.63818216  0.75915041     0.12300
H738        H  0.21647451  0.68262839  0.81933939     0.12300
H739        H  0.21196460  0.63689163  0.84220249     0.12300
H740        H  0.25688973  0.59268164  0.78200396     0.12300
C741        C  0.12083749  0.74214164  0.70952561    -0.13800
C742        C  0.11912699  0.72999669  0.68510456     0.08300
C743        C  0.14467200  0.71968984  0.67388965    -0.13800
C744        C  0.17126243  0.72140772  0.68688146    -0.13800
C745        C  0.17285639  0.73356082  0.71131197     0.08300
C746        C  0.14734445  0.74392533  0.72243902    -0.13800
H747        H  0.10177699  0.75062198  0.71871110     0.12300
H748        H  0.14417690  0.71006148  0.65517731     0.12300
H749        H  0.19056246  0.71328908  0.67776261     0.12300
H750        H  0.14780940  0.75351571  0.74119112     0.12300
C751        C  0.85499071  0.72571265  0.68013144    -0.13800
C752        C  0.88074480  0.73792306  0.68971539     0.08300
C753        C  0.88004633  0.75368458  0.71250431    -0.13800
C754        C  0.85395666  0.75751016  0.72525959    -0.13800
C755        C  0.82815667  0.74555370  0.71546801     0.08300
C756        C  0.82898799  0.72946647  0.69287186    -0.13800
H757        H  0.85485387  0.71307968  0.66282962     0.12300
H758        H  0.89951436  0.76350363  0.72027467     0.12300
H759        H  0.85395868  0.77004238  0.74263673     0.12300
H760        H  0.80950175  0.71982625  0.68492153     0.12300
C761        C  0.88032902  0.74322084  0.29098965    -0.13800
C762        C  0.88218021  0.73124475  0.31544205     0.08300
C763        C  0.85685823  0.72034315  0.32651690    -0.13800
C764        C  0.83030914  0.72150995  0.31345245    -0.13800
C765        C  0.82852307  0.73367368  0.28907579     0.08300
C766        C  0.85384129  0.74443917  0.27798710    -0.13800
H767        H  0.89922553  0.75207127  0.28188471     0.12300
H768        H  0.85746595  0.71076753  0.34522410     0.12300
H769        H  0.81117035  0.71302943  0.32250969     0.12300
H770        H  0.85321572  0.75399420  0.25924298     0.12300
C771        C  0.01092792  0.71307666  0.49335377    -0.16900
C772        C  0.98791598  0.71190703  0.50861591    -0.32100
H773        H  0.03270151  0.71334885  0.50137409     0.12100
H774        H  0.96612850  0.71171122  0.50061302     0.12700
C775        C  0.35436460  0.74116641  0.77738364    -0.13800
C776        C  0.32838723  0.75050869  0.78837797     0.08300
C777        C  0.32927275  0.76260059  0.81285218    -0.13800
C778        C  0.35557410  0.76514111  0.82609522    -0.13800
C779        C  0.38155435  0.75583083  0.81506998     0.08300
C780        C  0.38066145  0.74387433  0.79055440    -0.13800
H781        H  0.35441108  0.73173494  0.75857143     0.12300
H782        H  0.30961877  0.77002154  0.82184318     0.12300
H783        H  0.35553819  0.77470729  0.84483913     0.12300
H784        H  0.40022633  0.73624804  0.78158354     0.12300
C785        C  0.62031654  0.76204361  0.78699546    -0.13800
C786        C  0.61857353  0.77752446  0.80985815     0.08300
C787        C  0.64373884  0.79044194  0.81999599    -0.13800
C788        C  0.67027513  0.78726006  0.80787470    -0.13800
C789        C  0.67214293  0.77108304  0.78538746     0.08300
C790        C  0.64683783  0.75882771  0.77489656    -0.13800
H791        H  0.60139783  0.75167870  0.77875245     0.12300
H792        H  0.64303326  0.80287125  0.83739347     0.12300
H793        H  0.68936248  0.79719526  0.81627961     0.12300
H794        H  0.64756903  0.74630383  0.75753242     0.12300
C795        C  0.64546685  0.76541908  0.17516882    -0.13800
C796        C  0.61976636  0.75433100  0.18528985     0.08300
C797        C  0.62084527  0.74041360  0.20897633    -0.13800
C798        C  0.64710222  0.73751413  0.22220911    -0.13800
C799        C  0.67281352  0.74861266  0.21209305     0.08300
C800        C  0.67170161  0.76266252  0.18845955    -0.13800
H801        H  0.64531383  0.77650787  0.15709706     0.12300
H802        H  0.60147865  0.73138625  0.21720107     0.12300
H803        H  0.64724292  0.72654663  0.24035170     0.12300
H804        H  0.69112823  0.77153143  0.18017477     0.12300
C805        C  0.51229812  0.77974884  0.99188348    -0.16900
C806        C  0.48980382  0.77785095  0.00759687    -0.32100
H807        H  0.53425340  0.78103836  0.99944312     0.12100
H808        H  0.46781198  0.77730722  0.00005754     0.12700
C809        C  0.28118074  0.83458716  0.31157638    -0.13800
C810        C  0.26450514  0.83323957  0.28911629     0.08300
C811        C  0.25208822  0.85890910  0.27954783    -0.13800
C812        C  0.25620998  0.88529853  0.29211599    -0.13800
C813        C  0.27281744  0.88669144  0.31459421     0.08300
C814        C  0.28526127  0.86102816  0.32419618    -0.13800
H815        H  0.29113757  0.81522135  0.31939242     0.12300
H816        H  0.23901518  0.85862974  0.26235406     0.12300
H817        H  0.24602685  0.90453363  0.28431941     0.12300
H818        H  0.29837897  0.86136107  0.34134591     0.12300
C819        C  0.22406786  0.67878222  0.18924700    -0.13800
C820        C  0.23799495  0.67871611  0.21310360     0.08300
C821        C  0.24676107  0.65207582  0.22362906    -0.13800
C822        C  0.24137902  0.62607368  0.21071986    -0.13800
C823        C  0.22720752  0.62613515  0.18695127     0.08300
C824        C  0.21878931  0.65281996  0.17631264    -0.13800
H825        H  0.21705112  0.69892539  0.18057551     0.12300
H826        H  0.25764774  0.65127732  0.24192311     0.12300
H827        H  0.24849771  0.60597957  0.21936601     0.12300
H828        H  0.20768899  0.65371637  0.15814065     0.12300
C829        C  0.33017927  0.77615362  0.19077089    -0.13800
C830        C  0.32943853  0.76507640  0.21551810     0.08300
C831        C  0.35547397  0.75644064  0.22737446    -0.13800
C832        C  0.38167421  0.75829268  0.21451399    -0.13800
C833        C  0.38234503  0.76870592  0.18949586     0.08300
C834        C  0.35632538  0.77793208  0.17789950    -0.13800
H835        H  0.31047562  0.78309017  0.18116093     0.12300
H836        H  0.35558866  0.74795073  0.24650879     0.12300
H837        H  0.40122077  0.75097888  0.22408313     0.12300
H838        H  0.35595953  0.78644523  0.15881153     0.12300
C839        C  0.14766313  0.75701956  0.27632520    -0.13800
C840        C  0.17350973  0.74647970  0.28732393     0.08300
C841        C  0.17257728  0.73329626  0.31126373    -0.13800
C842        C  0.14645304  0.73100687  0.32409835    -0.13800
C843        C  0.12061535  0.74179189  0.31328309     0.08300
C844        C  0.12145465  0.75465426  0.28916720    -0.13800
H845        H  0.14769520  0.76728239  0.25787181     0.12300
H846        H  0.19209559  0.72487095  0.32021797     0.12300
H847        H  0.14661899  0.72059518  0.34245876     0.12300
H848        H  0.10199697  0.76330318  0.28032667     0.12300
loop_ 
_geom_bond_atom_site_label_1 
_geom_bond_atom_site_label_2 
_geom_bond_distance 
_geom_bond_site_symmetry_2 
_ccdc_geom_bond_type 
O1           Cu9   2.001       .  S
O1           C11   1.278       .  A
O2           Cu9   2.000       .  S
O2           C12   1.277       .  A
O3           Cu9   2.015       .  S
O3           C13   1.279       .  A
O4           Cu9   2.016       .  S
O4           C14   1.279       .  A
O5          Cu10   2.004       .  S
O5           C14   1.278       .  A
O6          Cu10   2.006       .  S
O6           C13   1.278       .  A
O7          Cu10   1.999       .  S
O7           C12   1.277       .  A
O8          Cu10   2.002       .  S
O8           C11   1.277       .  A
Cu9         Cu10   2.371       .  S
C11         C840   1.476       .  S
C12         C830   1.475       .  S
C13         C810   1.482       .  S
C14         C820   1.482       .  S
N15          N16   1.322       .  A
N15          C19   1.345       .  A
N15         Cu23   2.078       .  S
N16          C17   1.342       .  A
N16         Cu22   2.063       .  S
C17          C18   1.383       .  A
C17          H20   1.082       .  S
C18         C796   1.479       .  S
C18          C19   1.387       .  A
C19          H21   1.082       .  S
Cu22         N25   2.063       .  S
Cu23         N33   2.078       .  S
Cu24         N26   2.054       .  S
Cu24         N32   2.054       .  S
N25          N26   1.319       .  A
N25          C29   1.343       .  A
N26          C27   1.341       .  A
C27          C28   1.386       .  A
C27          H30   1.081       .  S
C28         C833   1.480       .  S
C28          C29   1.388       .  A
C29          H31   1.081       .  S
N32          N33   1.322       .  A
N32          C36   1.341       .  A
N33          C34   1.345       .  A
C34          C35   1.387       .  A
C34          H37   1.081       .  S
C35          C36   1.377       .  A
C35         C806   1.471       .  S
C36          H38   1.082       .  S
N39          N40   1.319       .  A
N39          C43   1.341       .  A
N39         Cu47   2.054       .  S
N40          C41   1.343       .  A
N40         Cu46   2.065       .  S
C41          C42   1.387       .  A
C41          H44   1.081       .  S
C42         C786   1.476       .  S
C42          C43   1.384       .  A
C43          H45   1.082       .  S
Cu46         N49   2.065       .  S
Cu47         N57   2.055       .  S
Cu48         N50   2.075       .  S
Cu48         N56   2.075       .  S
N49          N50   1.322       .  A
N49          C53   1.342       .  A
N50          C51   1.345       .  A
C51          C52   1.387       .  A
C51          H54   1.081       .  S
C52         C779   1.480       .  S
C52          C53   1.384       .  A
C53          H55   1.081       .  S
N56          N57   1.321       .  A
N56          C60   1.344       .  A
N57          C58   1.342       .  A
C58          C59   1.378       .  A
C58          H61   1.082       .  S
C59          C60   1.387       .  A
C59         C805   1.472       .  S
C60          H62   1.081       .  S
N63          N64   1.320       .  A
N63          C67   1.341       .  A
N63         Cu71   2.061       .  S
N64          C65   1.345       .  A
N64         Cu70   2.067       .  S
C65          C66   1.387       .  A
C65          H68   1.081       .  S
C66         C843   1.480       .  S
C66          C67   1.385       .  A
C67          H69   1.081       .  S
Cu70         N73   2.068   1_455  S
Cu71         N81   2.061       .  S
Cu72         N74   2.073       .  S
Cu72         N80   2.073       .  S
N73          N74   1.321       .  A
N73          C77   1.342       .  A
N74          C75   1.345       .  A
C75          C76   1.387       .  A
C75          H78   1.081       .  S
C76         C762   1.483       .  S
C76          C77   1.386       .  A
C77          H79   1.081       .  S
N80          N81   1.321   1_655  A
N80          C84   1.345       .  A
N81          C82   1.342       .  A
C82          C83   1.379       .  A
C82          H85   1.082       .  S
C83          C84   1.387   1_455  A
C83         C771   1.474       .  S
C84          H86   1.081       .  S
N87          N88   1.320       .  A
N87          C91   1.340       .  A
N87         Cu95   2.058       .  S
N88          C89   1.344       .  A
N88         Cu94   2.065       .  S
C89          C90   1.385       .  A
C89          H92   1.082       .  S
C90         C752   1.475       .  S
C90          C91   1.384       .  A
C91          H93   1.081       .  S
Cu94         N97   2.066   1_655  S
Cu95        N105   2.059       .  S
Cu96         N98   2.076       .  S
Cu96        N104   2.075       .  S
N97          N98   1.321       .  A
N97         C101   1.342       .  A
N98          C99   1.346       .  A
C99         C100   1.388       .  A
C99         H102   1.081       .  S
C100        C742   1.483       .  S
C100        C101   1.386       .  A
C101        H103   1.081       .  S
N104        N105   1.321   1_455  A
N104        C108   1.344       .  A
N105        C106   1.343       .  A
C106        C107   1.380       .  A
C106        H109   1.082       .  S
C107        C108   1.387   1_655  A
C107        C772   1.475       .  S
C108        H110   1.081       .  S
O111       Cu119   2.003       .  S
O111        C121   1.278       .  A
O112       Cu119   2.006       .  S
O112        C122   1.278       .  A
O113       Cu119   2.012       .  S
O113        C123   1.278       .  A
O114       Cu119   2.008       .  S
O114        C124   1.279       .  A
O115       Cu120   2.002       .  S
O115        C124   1.277       .  A
O116       Cu120   2.003       .  S
O116        C123   1.278       .  A
O117       Cu120   2.013       .  S
O117        C122   1.279       .  A
O118       Cu120   2.014       .  S
O118        C121   1.279       .  A
Cu119      Cu120   2.371       .  S
C121        C722   1.481       .  S
C122        C732   1.482       .  S
C123        C745   1.480       .  S
C124        C776   1.479       .  S
N125        N126   1.321       .  A
N125        C129   1.345       .  A
N125       Cu133   2.074       .  S
N126        C127   1.344       .  A
N126       Cu132   2.070       .  S
C127        C128   1.386       .  A
C127        H130   1.081       .  S
C128        C708   1.482       .  S
C128        C129   1.387       .  A
C129        H131   1.082       .  S
Cu132       N135   2.071       .  S
Cu133       N143   2.074       .  S
Cu134       N136   2.083       .  S
Cu134       N142   2.083       .  S
N135        N136   1.321       .  A
N135        C139   1.344       .  A
N136        C137   1.346       .  A
C137        C138   1.389       .  A
C137        H140   1.082       .  S
C138        C698   1.485       .  S
C138        C139   1.386       .  A
C139        H141   1.081       .  S
N142        N143   1.323       .  A
N142        C146   1.346       .  A
N143        C144   1.345       .  A
C144        C145   1.386       .  A
C144        H147   1.081       .  S
C145        C146   1.384       .  A
C145        C717   1.480       .  S
C146        H148   1.082       .  S
N149        N150   1.322       .  A
N149        C153   1.346       .  A
N149       Cu157   2.082       .  S
N150        C151   1.344       .  A
N150       Cu156   2.072       .  S
C151        C152   1.385       .  A
C151        H154   1.082       .  S
C152        C688   1.484       .  S
C152        C153   1.388       .  A
C153        H155   1.082       .  S
Cu156       N159   2.072       .  S
Cu157       N167   2.082       .  S
Cu158       N160   2.077       .  S
Cu158       N166   2.077       .  S
N159        N160   1.321       .  A
N159        C163   1.344       .  A
N160        C161   1.346       .  A
C161        C162   1.387       .  A
C161        H164   1.082       .  S
C162        C678   1.483       .  S
C162        C163   1.386       .  A
C163        H165   1.082       .  S
N166        N167   1.323       .  A
N166        C170   1.346       .  A
N167        C168   1.346       .  A
C168        C169   1.383       .  A
C168        H171   1.082       .  S
C169        C170   1.386       .  A
C169        C718   1.480       .  S
C170        H172   1.081       .  S
N173        N174   1.321       .  A
N173        C177   1.345       .  A
N173       Cu181   2.079       .  S
N174        C175   1.344       .  A
N174       Cu180   2.071       .  S
C175        C176   1.387       .  A
C175        H178   1.081       .  S
C176        C664   1.485       .  S
C176        C177   1.388       .  A
C177        H179   1.081       .  S
Cu180       N183   2.071       .  S
Cu181       N191   2.080       .  S
Cu182       N184   2.075       .  S
Cu182       N190   2.075       .  S
N183        N184   1.321       .  A
N183        C187   1.344       .  A
N184        C185   1.345       .  A
C185        C186   1.388       .  A
C185        H188   1.081       .  S
C186        C823   1.484       .  S
C186        C187   1.386       .  A
C187        H189   1.081       .  S
N190        N191   1.322       .  A
N190        C194   1.345       .  A
N191        C192   1.346       .  A
C192        C193   1.387       .  A
C192        H195   1.081       .  S
C193        C194   1.382       .  A
C193        C673   1.480       .  S
C194        H196   1.082       .  S
N197        N198   1.322       .  A
N197        C201   1.346       .  A
N197       Cu205   2.080       .  S
N198        C199   1.343       .  A
N198       Cu204   2.070       .  S
C199        C200   1.386       .  A
C199        H202   1.081       .  S
C200        C735   1.483       .  S
C200        C201   1.388       .  A
C201        H203   1.081       .  S
Cu204       N207   2.070       .  S
Cu205       N215   2.080       .  S
Cu206       N208   2.072       .  S
Cu206       N214   2.073       .  S
N207        N208   1.321       .  A
N207        C211   1.344       .  A
N208        C209   1.343       .  A
C209        C210   1.387       .  A
C209        H212   1.081       .  S
C210        C654   1.483       .  S
C210        C211   1.387       .  A
C211        H213   1.081       .  S
N214        N215   1.322       .  A
N214        C218   1.345       .  A
N215        C216   1.346       .  A
C216        C217   1.388       .  A
C216        H219   1.081       .  S
C217        C218   1.382       .  A
C217        C674   1.480       .  S
C218        H220   1.082       .  S
N221        N222   1.322       .  A
N221        C225   1.346       .  A
N221       Cu229   2.083       .  S
N222        C223   1.345       .  A
N222       Cu228   2.078   1_455  S
C223        C224   1.388       .  A
C223        H226   1.081       .  S
C224        C630   1.487       .  S
C224        C225   1.388       .  A
C225        H227   1.081       .  S
Cu228       N231   2.077       .  S
Cu229       N239   2.083       .  S
Cu230       N232   2.069       .  S
Cu230       N238   2.069       .  S
N231        N232   1.321       .  A
N231        C235   1.345       .  A
N232        C233   1.344       .  A
C233        C234   1.386       .  A
C233        H236   1.081       .  S
C234        C640   1.484       .  S
C234        C235   1.388       .  A
C235        H237   1.081       .  S
N238        N239   1.322   1_655  A
N238        C242   1.344       .  A
N239        C240   1.347       .  A
C240        C241   1.389   1_455  A
C240        H243   1.081       .  S
C241        C242   1.380       .  A
C241        C649   1.479       .  S
C242        H244   1.082       .  S
N245        N246   1.323       .  A
N245        C249   1.348       .  A
N245       Cu253   2.087       .  S
N246        C247   1.345       .  A
N246       Cu252   2.082   1_655  S
C247        C248   1.388       .  A
C247        H250   1.081       .  S
C248        C620   1.489       .  S
C248        C249   1.389       .  A
C249        H251   1.082       .  S
Cu252       N255   2.082       .  S
Cu253       N263   2.087       .  S
Cu254       N256   2.064       .  S
Cu254       N262   2.065       .  S
N255        N256   1.321       .  A
N255        C259   1.347       .  A
N256        C257   1.342       .  A
C257        C258   1.385       .  A
C257        H260   1.081       .  S
C258        C610   1.485       .  S
C258        C259   1.390       .  A
C259        H261   1.081       .  S
N262        N263   1.322   1_455  A
N262        C266   1.344       .  A
N263        C264   1.347       .  A
C264        C265   1.389   1_655  A
C264        H267   1.081       .  S
C265        C266   1.380       .  A
C265        C650   1.479       .  S
C266        H268   1.082       .  S
N269        N270   1.322       .  A
N269        C273   1.346       .  A
N269       Cu277   2.077       .  S
N270        C271   1.344       .  A
N270       Cu276   2.076   1_565  S
C271        C272   1.387       .  A
C271        H274   1.081       .  S
C272        C813   1.484       .  S
C272        C273   1.387       .  A
C273        H275   1.082       .  S
Cu276       N279   2.076       .  S
Cu277       N287   2.076       .  S
Cu278       N280   2.065       .  S
Cu278       N286   2.065       .  S
N279        N280   1.321       .  A
N279        C283   1.345       .  A
N280        C281   1.343       .  A
C281        C282   1.385       .  A
C281        H284   1.081       .  S
C282        C596   1.482       .  S
C282        C283   1.388       .  A
C283        H285   1.081       .  S
N286        N287   1.321   1_545  A
N286        C290   1.344       .  A
N287        C288   1.345       .  A
C288        C289   1.387   1_565  A
C288        H291   1.081       .  S
C289        C290   1.381       .  A
C289        C605   1.476       .  S
C290        H292   1.082       .  S
N293        N294   1.321       .  A
N293        C297   1.345       .  A
N293       Cu301   2.072       .  S
N294        C295   1.344       .  A
N294       Cu300   2.074   1_545  S
C295        C296   1.388       .  A
C295        H298   1.081       .  S
C296        C586   1.485       .  S
C296        C297   1.388       .  A
C297        H299   1.081       .  S
Cu300       N303   2.073       .  S
Cu301       N311   2.072       .  S
Cu302       N304   2.073       .  S
Cu302       N310   2.073       .  S
N303        N304   1.321       .  A
N303        C307   1.344       .  A
N304        C305   1.344       .  A
C305        C306   1.388       .  A
C305        H308   1.081       .  S
C306        C725   1.485       .  S
C306        C307   1.387       .  A
C307        H309   1.081       .  S
N310        N311   1.322   1_565  A
N310        C314   1.345       .  A
N311        C312   1.344       .  A
C312        C313   1.386   1_545  A
C312        H315   1.081       .  S
C313        C314   1.382       .  A
C313        C606   1.477       .  S
C314        H316   1.082       .  S
O317       Cu325   2.012       .  S
O317        C327   1.279       .  A
O318       Cu325   2.012       .  S
O318        C328   1.279       .  A
O319       Cu325   2.013       .  S
O319        C329   1.279       .  A
O320       Cu325   2.011       .  S
O320        C330   1.279       .  A
O321       Cu326   2.003       .  S
O321        C330   1.278       .  A
O322       Cu326   2.006       .  S
O322        C329   1.278       .  A
O323       Cu326   2.007       .  S
O323        C328   1.278       .  A
O324       Cu326   2.009       .  S
O324        C327   1.278       .  A
Cu325      Cu326   2.370       .  S
C327        C613   1.482       .  S
C328        C681   1.482       .  S
C329        C589   1.482       .  S
C330        C657   1.480       .  S
O331       Cu339   2.007       .  S
O331        C341   1.278       .  A
O332       Cu339   2.010       .  S
O332        C342   1.278       .  A
O333       Cu339   2.012       .  S
O333        C343   1.279       .  A
O334       Cu339   2.010       .  S
O334        C344   1.279       .  A
O335       Cu340   2.006       .  S
O335        C344   1.278       .  A
O336       Cu340   2.009       .  S
O336        C343   1.278       .  A
O337       Cu340   2.018       .  S
O337        C342   1.279       .  A
O338       Cu340   2.019       .  S
O338        C341   1.280       .  A
Cu339      Cu340   2.370       .  S
C341        C701   1.484       .  S
C342        C633   1.485       .  S
C343        C667   1.482       .  S
C344        C599   1.481       .  S
O345       Cu353   2.006       .  S
O345        C355   1.278       .  A
O346       Cu353   2.006       .  S
O346        C356   1.278       .  A
O347       Cu353   2.011       .  S
O347        C357   1.279       .  A
O348       Cu353   2.012       .  S
O348        C358   1.279       .  A
O349       Cu354   2.003       .  S
O349        C358   1.278       .  A
O350       Cu354   2.003       .  S
O350        C357   1.278       .  A
O351       Cu354   2.012       .  S
O351        C356   1.279       .  A
O352       Cu354   2.010       .  S
O352        C355   1.278       .  A
Cu353      Cu354   2.371       .  S
C355        C711   1.481       .  S
C356        C643   1.482       .  S
C357        C566   1.480       .  S
C358        C576   1.481       .  S
N359        N360   1.321       .  A
N359        C363   1.344       .  A
N359       Cu367   2.069       .  S
N360        C361   1.344       .  A
N360       Cu366   2.069       .  S
C361        C362   1.386       .  A
C361        H364   1.082       .  S
C362        C569   1.481       .  S
C362        C363   1.386       .  A
C363        H365   1.081       .  S
Cu366       N369   2.070       .  S
Cu367       N377   2.069       .  S
Cu368       N370   2.073       .  S
Cu368       N376   2.073       .  S
N369        N370   1.321       .  A
N369        C373   1.343       .  A
N370        C371   1.345       .  A
C371        C372   1.388       .  A
C371        H374   1.081       .  S
C372        C552   1.484       .  S
C372        C373   1.387       .  A
C373        H375   1.081       .  S
N376        N377   1.322       .  A
N376        C380   1.344       .  A
N377        C378   1.344       .  A
C378        C379   1.381       .  A
C378        H381   1.082       .  S
C379        C380   1.386       .  A
C379        C561   1.476       .  S
C380        H382   1.081       .  S
N383        N384   1.321       .  A
N383        C387   1.344       .  A
N383       Cu391   2.071       .  S
N384        C385   1.343       .  A
N384       Cu390   2.072       .  S
C385        C386   1.387       .  A
C385        H388   1.081       .  S
C386        C542   1.483       .  S
C386        C387   1.387       .  A
C387        H389   1.081       .  S
Cu390       N393   2.072       .  S
Cu391       N401   2.070       .  S
Cu392       N394   2.070       .  S
Cu392       N400   2.070       .  S
N393        N394   1.321       .  A
N393        C397   1.344       .  A
N394        C395   1.344       .  A
C395        C396   1.386       .  A
C395        H398   1.081       .  S
C396        C532   1.482       .  S
C396        C397   1.387       .  A
C397        H399   1.082       .  S
N400        N401   1.322       .  A
N400        C404   1.344       .  A
N401        C402   1.344       .  A
C402        C403   1.381       .  A
C402        H405   1.082       .  S
C403        C404   1.386       .  A
C403        C562   1.475       .  S
C404        H406   1.081       .  S
N407        N408   1.321       .  A
N407        C411   1.344       .  A
N407       Cu415   2.069       .  S
N408        C409   1.344       .  A
N408       Cu414   2.075   1_545  S
C409        C410   1.388       .  A
C409        H412   1.081       .  S
C410        C579   1.484       .  S
C410        C411   1.386       .  A
C411        H413   1.081       .  S
Cu414       N417   2.075       .  S
Cu415       N425   2.069       .  S
Cu416       N418   2.077       .  S
Cu416       N424   2.076       .  S
N417        N418   1.321       .  A
N417        C421   1.345       .  A
N418        C419   1.345       .  A
C419        C420   1.388       .  A
C419        H422   1.081       .  S
C420        C518   1.486       .  S
C420        C421   1.387       .  A
C421        H423   1.081       .  S
N424        N425   1.322   1_565  A
N424        C428   1.345       .  A
N425        C426   1.344       .  A
C426        C427   1.386   1_545  A
C426        H429   1.081       .  S
C427        C428   1.383       .  A
C427        C527   1.477       .  S
C428        H430   1.082       .  S
N431        N432   1.321       .  A
N431        C435   1.343       .  A
N431       Cu439   2.069       .  S
N432        C433   1.344       .  A
N432       Cu438   2.066       .  S
C433        C434   1.387       .  A
C433        H436   1.081       .  S
C434        C498   1.481       .  S
C434        C435   1.386       .  A
C435        H437   1.081       .  S
Cu438       N441   2.066   1_545  S
Cu439       N449   2.069       .  S
Cu440       N442   2.072       .  S
Cu440       N448   2.072       .  S
N441        N442   1.321       .  A
N441        C445   1.342       .  A
N442        C443   1.344       .  A
C443        C444   1.387       .  A
C443        H446   1.081       .  S
C444        C508   1.481       .  S
C444        C445   1.386       .  A
C445        H447   1.081       .  S
N448        N449   1.321   1_565  A
N448        C452   1.345       .  A
N449        C450   1.344       .  A
C450        C451   1.382       .  A
C450        H453   1.082       .  S
C451        C452   1.386   1_545  A
C451        C528   1.477       .  S
C452        H454   1.081       .  S
O455       Cu463   2.004       .  S
O455        C465   1.278       .  A
O456       Cu463   2.001       .  S
O456        C466   1.277       .  A
O457       Cu463   2.020       .  S
O457        C467   1.280       .  A
O458       Cu463   2.022       .  S
O458        C468   1.280       .  A
O459       Cu464   2.011       .  S
O459        C468   1.279       .  A
O460       Cu464   2.008       .  S
O460        C467   1.278       .  A
O461       Cu464   2.008       .  S
O461        C466   1.278       .  A
O462       Cu464   2.011       .  S
O462        C465   1.279       .  A
Cu463      Cu464   2.370       .  S
C465        C535   1.481       .  S
C466        C501   1.479       .  S
C467        C691   1.485       .  S
C468        C623   1.487       .  S
O469       Cu477   2.004       .  S
O469        C479   1.278       .  A
O470       Cu477   2.003       .  S
O470        C480   1.278       .  A
O471       Cu477   2.011       .  S
O471        C481   1.279       .  A
O472       Cu477   2.011       .  S
O472        C482   1.279       .  A
O473       Cu478   1.998       .  S
O473        C482   1.277       .  A
O474       Cu478   1.999       .  S
O474        C481   1.277       .  A
O475       Cu478   2.015       .  S
O475        C480   1.279       .  A
O476       Cu478   2.016       .  S
O476        C479   1.279       .  A
Cu477      Cu478   2.371       .  S
C479        C521   1.482       .  S
C480        C555   1.481       .  S
C481        C765   1.479       .  S
C482        C799   1.478       .  S
O483       Cu491   2.000       .  S
O483        C493   1.277       .  A
O484       Cu491   2.004       .  S
O484        C494   1.278       .  A
O485       Cu491   2.004       .  S
O485        C495   1.278       .  A
O486       Cu491   2.004       .  S
O486        C496   1.278       .  A
O487       Cu492   1.993       .  S
O487        C496   1.276       .  A
O488       Cu492   1.992       .  S
O488        C495   1.277       .  A
O489       Cu492   2.008       .  S
O489        C494   1.279       .  A
O490       Cu492   2.007       .  S
O490        C493   1.278       .  A
Cu491      Cu492   2.372       .  S
C493        C511   1.478       .  S
C494        C545   1.479       .  S
C495        C755   1.474       .  S
C496        C789   1.474       .  S
C497        C498   1.406       .  A
C497        C502   1.397       .  A
C497        H503   1.082       .  S
C498        C499   1.405       .  A
C499        C500   1.396       .  A
C499        H504   1.082       .  S
C500        C501   1.405       .  A
C500        H505   1.083       .  S
C501        C502   1.405       .  A
C502        H506   1.083       .  S
C507        C508   1.405       .  A
C507        C512   1.395       .  A
C507        H513   1.082       .  S
C508        C509   1.406       .  A
C509        C510   1.397       .  A
C509        H514   1.082       .  S
C510        C511   1.405       .  A
C510        H515   1.083       .  S
C511        C512   1.404       .  A
C512        H516   1.083       .  S
C517        C518   1.407       .  A
C517        C522   1.399       .  A
C517        H523   1.082       .  S
C518        C519   1.406       .  A
C519        C520   1.398       .  A
C519        H524   1.082       .  S
C520        C521   1.406       .  A
C520        H525   1.083       .  S
C521        C522   1.405       .  A
C522        H526   1.083       .  S
C527        C528   1.344   1_565  D
C527        H529   1.086       .  S
C528        H530   1.086       .  S
C531        C532   1.406       .  A
C531        C536   1.398       .  A
C531        H537   1.082       .  S
C532        C533   1.405       .  A
C533        C534   1.397       .  A
C533        H538   1.082       .  S
C534        C535   1.406       .  A
C534        H539   1.083       .  S
C535        C536   1.405       .  A
C536        H540   1.083       .  S
C541        C542   1.406       .  A
C541        C546   1.398       .  A
C541        H547   1.082       .  S
C542        C543   1.406       .  A
C543        C544   1.397       .  A
C543        H548   1.081       .  S
C544        C545   1.404       .  A
C544        H549   1.083       .  S
C545        C546   1.405       .  A
C546        H550   1.083       .  S
C551        C552   1.407       .  A
C551        C556   1.400       .  A
C551        H557   1.082       .  S
C552        C553   1.406       .  A
C553        C554   1.396       .  A
C553        H558   1.081       .  S
C554        C555   1.405       .  A
C554        H559   1.083       .  S
C555        C556   1.405       .  A
C556        H560   1.083       .  S
C561        C562   1.343   1_554  D
C561        H563   1.085   1_554  S
C562        H564   1.085   1_556  S
C565        C566   1.405       .  A
C565        C570   1.398       .  A
C565        H571   1.083       .  S
C566        C567   1.406       .  A
C567        C568   1.397       .  A
C567        H572   1.083       .  S
C568        C569   1.405       .  A
C568        H573   1.082       .  S
C569        C570   1.405       .  A
C570        H574   1.082       .  S
C575        C576   1.405       .  A
C575        C580   1.399       .  A
C575        H581   1.083       .  S
C576        C577   1.405       .  A
C577        C578   1.396       .  A
C577        H582   1.083       .  S
C578        C579   1.405       .  A
C578        H583   1.082       .  S
C579        C580   1.407       .  A
C580        H584   1.082       .  S
C585        C586   1.405       .  A
C585        C590   1.397       .  A
C585        H591   1.082       .  S
C586        C587   1.407       .  A
C587        C588   1.399       .  A
C587        H592   1.082       .  S
C588        C589   1.405       .  A
C588        H593   1.083       .  S
C589        C590   1.405       .  A
C590        H594   1.083       .  S
C595        C596   1.405       .  A
C595        C600   1.398       .  A
C595        H601   1.082       .  S
C596        C597   1.406       .  A
C597        C598   1.397       .  A
C597        H602   1.082       .  S
C598        C599   1.405       .  A
C598        H603   1.083       .  S
C599        C600   1.405       .  A
C600        H604   1.083       .  S
C605        C606   1.343   1_545  D
C605        H607   1.085       .  S
C606        H608   1.085       .  S
C609        C610   1.405       .  A
C609        C614   1.399       .  A
C609        H615   1.082       .  S
C610        C611   1.407       .  A
C611        C612   1.398       .  A
C611        H616   1.082       .  S
C612        C613   1.405       .  A
C612        H617   1.083       .  S
C613        C614   1.406       .  A
C614        H618   1.083       .  S
C619        C620   1.406       .  A
C619        C624   1.398       .  A
C619        H625   1.082       .  S
C620        C621   1.407       .  A
C621        C622   1.403       .  A
C621        H626   1.082       .  S
C622        C623   1.407       .  A
C622        H627   1.083       .  S
C623        C624   1.406       .  A
C624        H628   1.083       .  S
C629        C630   1.407       .  A
C629        C634   1.400       .  A
C629        H635   1.082       .  S
C630        C631   1.406       .  A
C631        C632   1.399       .  A
C631        H636   1.082       .  S
C632        C633   1.406       .  A
C632        H637   1.083       .  S
C633        C634   1.406       .  A
C634        H638   1.083       .  S
C639        C640   1.406       .  A
C639        C644   1.397       .  A
C639        H645   1.082       .  S
C640        C641   1.406       .  A
C641        C642   1.399       .  A
C641        H646   1.082       .  S
C642        C643   1.406       .  A
C642        H647   1.083       .  S
C643        C644   1.405       .  A
C644        H648   1.083       .  S
C649        C650   1.343   1_655  D
C649        H651   1.085       .  S
C650        H652   1.085       .  S
C653        C654   1.406       .  A
C653        C658   1.397       .  A
C653        H659   1.082       .  S
C654        C655   1.406       .  A
C655        C656   1.398       .  A
C655        H660   1.082       .  S
C656        C657   1.405       .  A
C656        H661   1.083       .  S
C657        C658   1.405       .  A
C658        H662   1.083       .  S
C663        C664   1.406       .  A
C663        C668   1.399       .  A
C663        H669   1.082       .  S
C664        C665   1.406       .  A
C665        C666   1.398       .  A
C665        H670   1.082       .  S
C666        C667   1.405       .  A
C666        H671   1.083       .  S
C667        C668   1.405       .  A
C668        H672   1.083       .  S
C673        C674   1.344   1_554  D
C673        H675   1.085   1_554  S
C674        H676   1.085   1_556  S
C677        C678   1.405       .  A
C677        C682   1.399       .  A
C677        H683   1.082       .  S
C678        C679   1.406       .  A
C679        C680   1.398       .  A
C679        H684   1.082       .  S
C680        C681   1.405       .  A
C680        H685   1.083       .  S
C681        C682   1.406       .  A
C682        H686   1.083       .  S
C687        C688   1.404       .  A
C687        C692   1.399       .  A
C687        H693   1.082       .  S
C688        C689   1.406       .  A
C689        C690   1.400       .  A
C689        H694   1.082       .  S
C690        C691   1.406       .  A
C690        H695   1.083       .  S
C691        C692   1.407       .  A
C692        H696   1.083       .  S
C697        C698   1.405       .  A
C697        C702   1.399       .  A
C697        H703   1.082       .  S
C698        C699   1.407       .  A
C699        C700   1.399       .  A
C699        H704   1.082       .  S
C700        C701   1.405       .  A
C700        H705   1.083       .  S
C701        C702   1.407       .  A
C702        H706   1.083       .  S
C707        C708   1.405       .  A
C707        C712   1.399       .  A
C707        H713   1.082       .  S
C708        C709   1.405       .  A
C709        C710   1.397       .  A
C709        H714   1.082       .  S
C710        C711   1.405       .  A
C710        H715   1.083       .  S
C711        C712   1.406       .  A
C712        H716   1.083       .  S
C717        C718   1.345   1_554  D
C717        H719   1.085   1_554  S
C718        H720   1.085   1_556  S
C721        C722   1.405       .  A
C721        C726   1.397       .  A
C721        H727   1.083       .  S
C722        C723   1.405       .  A
C723        C724   1.399       .  A
C723        H728   1.083       .  S
C724        C725   1.407       .  A
C724        H729   1.081       .  S
C725        C726   1.406       .  A
C726        H730   1.081       .  S
C731        C732   1.405       .  A
C731        C736   1.397       .  A
C731        H737   1.083       .  S
C732        C733   1.406       .  A
C733        C734   1.400       .  A
C733        H738   1.083       .  S
C734        C735   1.406       .  A
C734        H739   1.082       .  S
C735        C736   1.405       .  A
C736        H740   1.082       .  S
C741        C742   1.405       .  A
C741        C746   1.395       .  A
C741        H747   1.081       .  S
C742        C743   1.406       .  A
C743        C744   1.400       .  A
C743        H748   1.082       .  S
C744        C745   1.406       .  A
C744        H749   1.083       .  S
C745        C746   1.404       .  A
C746        H750   1.083       .  S
C751        C752   1.404       .  A
C751        C756   1.392       .  A
C751        H757   1.082       .  S
C752        C753   1.405       .  A
C753        C754   1.397       .  A
C753        H758   1.082       .  S
C754        C755   1.405       .  A
C754        H759   1.083       .  S
C755        C756   1.404       .  A
C756        H760   1.083       .  S
C761        C762   1.405       .  A
C761        C766   1.395       .  A
C761        H767   1.081       .  S
C762        C763   1.406       .  A
C763        C764   1.399       .  A
C763        H768   1.082       .  S
C764        C765   1.405       .  A
C764        H769   1.083       .  S
C765        C766   1.404       .  A
C766        H770   1.083       .  S
C771        C772   1.341   1_455  D
C771        H773   1.085       .  S
C772        H774   1.085       .  S
C775        C776   1.404       .  A
C775        C780   1.396       .  A
C775        H781   1.083       .  S
C776        C777   1.406       .  A
C777        C778   1.397       .  A
C777        H782   1.083       .  S
C778        C779   1.405       .  A
C778        H783   1.082       .  S
C779        C780   1.405       .  A
C780        H784   1.082       .  S
C785        C786   1.404       .  A
C785        C790   1.394       .  A
C785        H791   1.082       .  S
C786        C787   1.405       .  A
C787        C788   1.395       .  A
C787        H792   1.082       .  S
C788        C789   1.404       .  A
C788        H793   1.083       .  S
C789        C790   1.405       .  A
C790        H794   1.083       .  S
C795        C796   1.404       .  A
C795        C800   1.397       .  A
C795        H801   1.082       .  S
C796        C797   1.406       .  A
C797        C798   1.397       .  A
C797        H802   1.082       .  S
C798        C799   1.404       .  A
C798        H803   1.083       .  S
C799        C800   1.406       .  A
C800        H804   1.083       .  S
C805        C806   1.339   1_556  D
C805        H807   1.085       .  S
C806        H808   1.085       .  S
C809        C810   1.406       .  A
C809        C814   1.400       .  A
C809        H815   1.083       .  S
C810        C811   1.405       .  A
C811        C812   1.397       .  A
C811        H816   1.083       .  S
C812        C813   1.405       .  A
C812        H817   1.082       .  S
C813        C814   1.406       .  A
C814        H818   1.082       .  S
C819        C820   1.406       .  A
C819        C824   1.397       .  A
C819        H825   1.083       .  S
C820        C821   1.405       .  A
C821        C822   1.399       .  A
C821        H826   1.083       .  S
C822        C823   1.407       .  A
C822        H827   1.082       .  S
C823        C824   1.405       .  A
C824        H828   1.082       .  S
C829        C830   1.403       .  A
C829        C834   1.394       .  A
C829        H835   1.083       .  S
C830        C831   1.404       .  A
C831        C832   1.396       .  A
C831        H836   1.083       .  S
C832        C833   1.406       .  A
C832        H837   1.081       .  S
C833        C834   1.406       .  A
C834        H838   1.081       .  S
C839        C840   1.405       .  A
C839        C844   1.398       .  A
C839        H845   1.083       .  S
C840        C841   1.403       .  A
C841        C842   1.394       .  A
C841        H846   1.083       .  S
C842        C843   1.405       .  A
C842        H847   1.081       .  S
C843        C844   1.405       .  A
C844        H848   1.082       .  S
