geometry optimzed in LAMMPS
_audit_creation_date              2020-12-01 
_audit_creation_method            'lammps2cif' 
_symmetry_space_group_name_H-M    'P1' 
_symmetry_Int_Tables_number       1 
_symmetry_cell_setting            triclinic 
loop_ 
_symmetry_equiv_pos_as_xyz 
  x,y,z 
_cell_length_a                    40.63422916 
_cell_length_b                    40.51025306017226 
_cell_length_c                    71.89593001406064 
_cell_angle_alpha                 90.15319622210211 
_cell_angle_beta                  89.98202227584021 
_cell_angle_gamma                 120.20291616493913 
loop_ 
_atom_site_label 
_atom_site_type_symbol 
_atom_site_fract_x 
_atom_site_fract_y 
_atom_site_fract_z 
_atom_site_charge 
C1          C  0.33515478  0.16815078  0.56795434     0.46600
H2          H  0.33591290  0.16810448  0.58342212    -0.02400
C3          C  0.33305417  0.16813647  0.53174309     0.46700
H4          H  0.33250554  0.16837557  0.51630007    -0.02400
C5          C  0.37416117  0.19171818  0.55915026    -0.16100
C6          C  0.31824095  0.12836640  0.55934430    -0.15800
C7          C  0.31147489  0.18438896  0.56005889    -0.16200
C8          C  0.37371123  0.19170784  0.54008995    -0.16200
C9          C  0.31675678  0.12783678  0.54023400    -0.15800
C10         C  0.31015155  0.18487008  0.54100744    -0.16100
C11         C  0.16670593  0.33344902  0.49148745     0.46600
H12         H  0.16923608  0.33523248  0.50688405    -0.02400
C13         C  0.15980102  0.32862425  0.45540293     0.46700
H14         H  0.15688948  0.32667928  0.43999395    -0.02400
C15         C  0.18389759  0.31079647  0.48231132    -0.16100
C16         C  0.12491005  0.31319129  0.48451202    -0.15800
C17         C  0.18624109  0.37274479  0.48168011    -0.16200
C18         C  0.17984399  0.30841308  0.46327498    -0.16200
C19         C  0.12195140  0.31094344  0.46552516    -0.15800
C20         C  0.18217211  0.36966502  0.46266762    -0.16100
Zn21       Zn  0.14218046  0.27962221  0.67036523     1.49700
Zn22       Zn  0.14031671  0.35715518  0.66949933     1.49400
Zn23       Zn  0.16896008  0.33435146  0.70598414     1.49100
Zn24       Zn  0.22062881  0.36016729  0.66983547     1.49500
O25         O  0.16803316  0.33280821  0.67887107    -1.83000
O26         O  0.09657126  0.26726834  0.65440960    -0.73600
O27         O  0.12284680  0.37748065  0.69059210    -0.73400
O28         O  0.14131077  0.28129148  0.71674581    -0.72900
O29         O  0.09447417  0.32098378  0.65432986    -0.73600
O30         O  0.12545064  0.24308455  0.69201976    -0.73200
O31         O  0.14469497  0.36287984  0.71576427    -0.73800
O32         O  0.25864521  0.38054978  0.69073468    -0.73200
O33         O  0.17344092  0.40008696  0.65219949    -0.73900
O34         O  0.22216788  0.36219746  0.71596025    -0.73300
O35         O  0.23000494  0.40397074  0.65298486    -0.73800
O36         O  0.23151500  0.32484498  0.65509726    -0.73700
O37         O  0.17673331  0.26966848  0.65449106    -0.73500
C38         C  0.08137391  0.28653745  0.64916250     0.78300
C39         C  0.12727647  0.37794557  0.70813802     0.78800
C40         C  0.12641070  0.24807876  0.70954608     0.77700
C41         C  0.25475657  0.37913476  0.70830759     0.78100
C42         C  0.20795781  0.41539471  0.64696487     0.79300
C43         C  0.21147752  0.29026910  0.64986830     0.78300
C44         C  0.99775306  0.00033575  0.79069960     0.46600
H45         H  0.99767820  0.00184403  0.77532006    -0.02400
C46         C  0.99792514  0.99859673  0.82681218     0.46700
H47         H  0.99806050  0.99765902  0.84225496    -0.02400
C48         C  0.46134165  0.48023782  0.79860346    -0.16100
C49         C  0.02148225  0.47876280  0.79810609    -0.15800
C50         C  0.01906420  0.04002943  0.79960065    -0.16200
C51         C  0.46057205  0.47820106  0.81770996    -0.16200
C52         C  0.02059547  0.47700314  0.81718391    -0.15800
C53         C  0.01960029  0.03942424  0.81873638    -0.16100
C54         C  0.16848644  0.33124648  0.86685879     0.46600
H55         H  0.16912896  0.32905384  0.85147930    -0.02400
C56         C  0.16676000  0.33687445  0.90291508     0.46700
H57         H  0.16608799  0.33923132  0.91831982    -0.02400
C58         C  0.14780924  0.35249592  0.87370170    -0.16100
C59         C  0.14818109  0.29220860  0.87699122    -0.15800
C60         C  0.20847663  0.35326640  0.87593809    -0.16200
C61         C  0.14683513  0.35455401  0.89271732    -0.16200
C62         C  0.14767748  0.29584808  0.89599769    -0.15800
C63         C  0.20681033  0.35610271  0.89494203    -0.16100
C64         C  0.33014288  0.16522818  0.12350089     0.46600
H65         H  0.32884559  0.16501808  0.10813244    -0.02400
C66         C  0.33168486  0.16616815  0.15963881     0.46700
H67         H  0.33256384  0.16666887  0.17508754    -0.02400
C68         C  0.29057060  0.14334645  0.13220235    -0.16100
C69         C  0.35192540  0.14676717  0.13159110    -0.15800
C70         C  0.34889496  0.20560608  0.13171602    -0.16200
C71         C  0.29101204  0.14415115  0.15133221    -0.16200
C72         C  0.35311036  0.14755635  0.15074341    -0.15800
C73         C  0.35019929  0.20621759  0.15078703    -0.16100
C74         C  0.50085021  0.50049500  0.19920798     0.46600
H75         H  0.50091968  0.50222690  0.18378996    -0.02400
C76         C  0.49997921  0.49570831  0.23524131     0.46700
H77         H  0.50011185  0.49378578  0.25060549    -0.02400
C78         C  0.47580366  0.01802393  0.20654432    -0.16100
C79         C  0.48035151  0.45899240  0.20665697    -0.15800
C80         C  0.03777410  0.02241926  0.20649651    -0.16200
C81         C  0.47584221  0.01706573  0.22557050    -0.16200
C82         C  0.48016743  0.45694654  0.22565699    -0.15800
C83         C  0.03706796  0.02155543  0.22561040    -0.16100
Zn84       Zn  0.27942232  0.13889330  0.35222050     1.49700
Zn85       Zn  0.35900734  0.13889484  0.35117124     1.49400
Zn86       Zn  0.33561307  0.17253903  0.31781419     1.49100
Zn87       Zn  0.36004510  0.21780502  0.35528365     1.49500
O88         O  0.33315414  0.16681170  0.34441011    -1.83000
O89         O  0.26940213  0.09281037  0.36786265    -0.73600
O90         O  0.37427973  0.11945887  0.32880527    -0.73400
O91         O  0.28470001  0.15262784  0.30655953    -0.72900
O92         O  0.32522373  0.09497126  0.36720179    -0.73600
O93         O  0.24398094  0.12206205  0.32953810    -0.73200
O94         O  0.35911894  0.14601022  0.30589793    -0.73800
O95         O  0.38242968  0.25980030  0.33591832    -0.73200
O96         O  0.40512769  0.17080543  0.36701846    -0.73900
O97         O  0.36745290  0.22559637  0.30994364    -0.73300
O98         O  0.40235353  0.22357789  0.37173825    -0.73800
O99         O  0.32487774  0.22569521  0.37146419    -0.73700
O100        O  0.26813008  0.17296818  0.36893001    -0.73500
C101        C  0.29110953  0.08012029  0.37288909     0.78300
C102        C  0.37308083  0.12615686  0.31161716     0.78800
C103        C  0.25098158  0.13176234  0.31246109     0.77700
C104        C  0.38366367  0.25741215  0.31831105     0.78100
C105        C  0.41731592  0.20308700  0.37485279     0.79300
C106        C  0.28978715  0.20626102  0.37567026     0.78300
Zn107      Zn  0.47766572  0.44787701  0.00332928     1.49700
Zn108      Zn  0.49165711  0.99702041  0.03856604     1.49400
Zn109      Zn  0.05175186  0.02218552  0.00573763     1.49100
Zn110      Zn  0.47314863  0.02678466  0.00165498     1.49500
O111        O  0.49674915  0.99860969  0.01180437    -1.83000
O112        O  0.45919849  0.40938465  0.02421647    -0.73600
O113        O  0.04210927  0.02263916  0.05137359    -0.73400
O114        O  0.06687118  0.49313935  0.98941900    -0.72900
O115        O  0.47150791  0.44618573  0.04920234    -0.73600
O116        O  0.01154075  0.43915027  0.98663960    -0.73200
O117        O  0.08483701  0.03752435  0.02889028    -0.73800
O118        O  0.01326007  0.07060477  0.98689451    -0.73200
O119        O  0.46229943  0.02082381  0.04717004    -0.73900
O120        O  0.06669806  0.06842133  0.98972394    -0.73300
O121        O  0.45249090  0.04636280  0.02201486    -0.73800
O122        O  0.43137993  0.49089610  0.98707179    -0.73700
O123        O  0.43356791  0.43709892  0.98718305    -0.73500
C124        C  0.45775797  0.41345302  0.04170709     0.78300
C125        C  0.07631793  0.03666983  0.04601559     0.78800
C126        C  0.04665794  0.45970855  0.98276270     0.77700
C127        C  0.04835120  0.08365846  0.98320915     0.78100
C128        C  0.44959714  0.04030713  0.03947839     0.79300
C129        C  0.41876706  0.45655689  0.98176007     0.78300
C130        C  0.18161350  0.10758482  0.27185050     0.17100
C131        C  0.16363528  0.10649193  0.25502268    -0.31900
C132        C  0.12728823  0.07499938  0.25183776     0.21500
C133        C  0.11006195  0.04578284  0.26471792     0.03700
C134        C  0.12778292  0.04707154  0.28159554    -0.21700
C135        C  0.16376540  0.07877952  0.28492675     0.12900
S136        S  0.22601027  0.14267819  0.27816450    -0.05300
C137        C  0.22006278  0.11866863  0.29879868    -0.08800
C138        C  0.18550090  0.08520094  0.30055190    -0.25400
S139        S  0.06613597  0.01023068  0.25845910    -0.02600
C140        C  0.07013055  0.03523885  0.23838568    -0.16000
C141        C  0.10442357  0.06927255  0.23670457    -0.14000
H142        H  0.17731235  0.12919699  0.24490582     0.21300
H143        H  0.11399323  0.02443893  0.29173968     0.17400
H144        H  0.17724971  0.06605546  0.31233167     0.19900
H145        H  0.11178985  0.08968085  0.22561926     0.13200
C146        C  0.45033102  0.36664485  0.25435353     0.17100
C147        C  0.44573750  0.33331206  0.26258976    -0.31900
C148        C  0.42921560  0.32406583  0.28035275     0.21500
C149        C  0.41845950  0.34719232  0.28966418     0.03700
C150        C  0.42256602  0.38005854  0.28132541    -0.21700
C151        C  0.43829082  0.38882108  0.26348993     0.12900
S152        S  0.47126479  0.38445576  0.23327783    -0.05300
C153        C  0.46300437  0.42175529  0.23690923    -0.08800
C154        C  0.44473091  0.41972401  0.25340459    -0.25400
S155        S  0.39826052  0.33079120  0.31092524    -0.02600
C156        C  0.40299950  0.29163822  0.30690860    -0.16000
C157        C  0.42022422  0.29193221  0.29021835    -0.14000
H158        H  0.45443202  0.31534287  0.25547870     0.21300
H159        H  0.41364672  0.39792129  0.28837047     0.17400
H160        H  0.95085842  0.44741018  0.26212559     0.19900
H161        H  0.42435759  0.26900333  0.28524744     0.13200
C162        C  0.42220653  0.03762428  0.26304496     0.17100
C163        C  0.40425126  0.03795140  0.27954014    -0.31900
C164        C  0.40204801  0.07057053  0.28335676     0.21500
C165        C  0.41601767  0.10095692  0.27100303     0.03700
C166        C  0.43415810  0.10066903  0.25454020    -0.21700
C167        C  0.43734934  0.06848829  0.25099894     0.12900
S168        S  0.42968363  0.00176147  0.25657845    -0.05300
C169        C  0.45479823  0.02907886  0.23784409    -0.08800
C170        C  0.45627535  0.06382226  0.23645593    -0.25400
S171        S  0.40950934  0.13738898  0.27782836    -0.02600
C172        C  0.38873809  0.11179355  0.29771838    -0.16000
C173        C  0.38674112  0.07686250  0.29893652    -0.14000
H174        H  0.39320971  0.01418500  0.28913959     0.21300
H175        H  0.44582925  0.12470571  0.24509402     0.17400
H176        H  0.96981959  0.08487054  0.22491523     0.19900
H177        H  0.37408099  0.05695441  0.31034178     0.13200
C178        C  0.38409419  0.29886528  0.10381905     0.17100
C179        C  0.39453637  0.33532568  0.09720021    -0.31900
C180        C  0.41168521  0.34547164  0.07960423     0.21500
C181        C  0.41745878  0.32027119  0.06891284     0.03700
C182        C  0.40733378  0.28405860  0.07561894    -0.21700
C183        C  0.39090789  0.27424534  0.09332109     0.12900
S184        S  0.36299517  0.28066500  0.12475898    -0.05300
C185        C  0.36458205  0.23984082  0.11953996    -0.08800
C186        C  0.38002708  0.24073615  0.10226896    -0.25400
S187        S  0.43816914  0.33769713  0.04783537    -0.02600
C188        C  0.44002461  0.37976134  0.05370521    -0.16000
C189        C  0.42492162  0.37987178  0.07097944    -0.14000
H190        H  0.38982100  0.35498885  0.10543571     0.21300
H191        H  0.41230477  0.26446928  0.06746071     0.17400
H192        H  0.38378110  0.21837298  0.09647742     0.19900
H193        H  0.42380528  0.40390100  0.07690629     0.13200
C194        C  0.14421876  0.07809517  0.08736927     0.18300
C195        C  0.16234881  0.09519579  0.10414495    -0.31900
C196        C  0.19898415  0.10103982  0.10704166     0.21500
C197        C  0.21632831  0.08947063  0.09404585     0.03700
C198        C  0.19839673  0.07273249  0.07718396    -0.21700
C199        C  0.16220118  0.06783072  0.07406031     0.12900
S200        S  0.09991428  0.06880454  0.08119539    -0.05300
C201        C  0.10622251  0.05210401  0.06021999    -0.08800
C202        C  0.14067268  0.05328309  0.05829782    -0.25400
S203        S  0.26099458  0.09980428  0.09997431    -0.02600
C204        C  0.25699075  0.12117226  0.11998339    -0.16000
C205        C  0.22227297  0.11960842  0.12184486    -0.14000
H206        H  0.14874821  0.10409526  0.11435525     0.21300
H207        H  0.21235558  0.06459505  0.06681328     0.17400
H208        H  0.14919624  0.04349317  0.04617522     0.19900
H209        H  0.21500632  0.13340997  0.13257968     0.13200
C210        C  0.41019889  0.09401079  0.06675031     0.17100
C211        C  0.39959816  0.11982692  0.07332041    -0.31900
C212        C  0.38827781  0.11657554  0.09195315     0.21500
C213        C  0.38695142  0.08870279  0.10350784     0.03700
C214        C  0.39778545  0.06299523  0.09700878    -0.21700
C215        C  0.40958739  0.06652762  0.07843510     0.12900
S216        S  0.42563818  0.09363085  0.04468491    -0.05300
C217        C  0.43204603  0.05654073  0.05144115    -0.08800
C218        C  0.42216131  0.04500764  0.06972818    -0.25400
S219        S  0.37106218  0.08904867  0.12541581    -0.02600
C220        C  0.36750466  0.12831546  0.11920748    -0.16000
C221        C  0.37722767  0.13913115  0.10081718    -0.14000
H222        H  0.40036184  0.14164545  0.06435412     0.21300
H223        H  0.39720310  0.04133404  0.10602480     0.17400
H224        H  0.42469557  0.02244870  0.07640985     0.19900
H225        H  0.37611998  0.16204318  0.09391668     0.13200
C226        C  0.42122957  0.11745523  0.17100217     0.17100
C227        C  0.45199783  0.11142261  0.17386649    -0.31900
C228        C  0.44452061  0.07717190  0.18238088     0.21500
C229        C  0.40803475  0.05030934  0.18798480     0.03700
C230        C  0.37731312  0.05647586  0.18527158    -0.21700
C231        C  0.38472787  0.09056438  0.17660513     0.12900
S232        S  0.42391375  0.15555369  0.15945228    -0.05300
C233        C  0.37520237  0.13452088  0.16174523    -0.08800
C234        C  0.35822267  0.10054488  0.17158708    -0.25400
S235        S  0.40510497  0.01139792  0.19876680    -0.02600
C236        C  0.45369566  0.03175891  0.19597940    -0.16000
C237        C  0.47080828  0.06648065  0.18676817    -0.14000
H238        H  0.48045877  0.13230027  0.16941263     0.21300
H239        H  0.34879481  0.03544006  0.18957860     0.17400
H240        H  0.32781814  0.08271624  0.17365670     0.19900
H241        H  0.50118608  0.08411349  0.18455231     0.13200
C242        C  0.19628721  0.07852951  0.17589750     0.17100
C243        C  0.16264461  0.04721574  0.18267587    -0.31900
C244        C  0.13172224  0.05261067  0.18643766     0.21500
C245        C  0.13397882  0.08746837  0.18332311     0.03700
C246        C  0.16798095  0.11906001  0.17711101    -0.21700
C247        C  0.19909634  0.11384773  0.17366218     0.12900
S248        S  0.23569258  0.07702114  0.16869144    -0.05300
C249        C  0.25618661  0.12450865  0.16282358    -0.08800
C250        C  0.23393082  0.14066356  0.16676045    -0.25400
S251        S  0.09309868  0.08800601  0.18838139    -0.02600
C252        C  0.07345150  0.04138534  0.19565299    -0.16000
C253        C  0.09705475  0.02608936  0.19365519    -0.14000
H254        H  0.16048462  0.01971325  0.18468943     0.21300
H255        H  0.16999845  0.14644910  0.17489832     0.17400
H256        H  0.24164212  0.16966466  0.16325078     0.19900
H257        H  0.08974101  0.99762328  0.19799953     0.13200
C258        C  0.42103449  0.30458282  0.17057059     0.17100
C259        C  0.45322971  0.34047053  0.17406317    -0.31900
C260        C  0.44732715  0.36900179  0.18172005     0.21500
C261        C  0.41096649  0.36199975  0.18572006     0.03700
C262        C  0.37886746  0.32612418  0.18232123    -0.21700
C263        C  0.38474154  0.29758667  0.17475387     0.12900
S264        S  0.42186862  0.26703906  0.16019920    -0.05300
C265        C  0.37286459  0.24181449  0.16148212    -0.08800
C266        C  0.35695817  0.26134273  0.16981933    -0.25400
S267        S  0.40969112  0.39933623  0.19595897    -0.02600
C268        C  0.45864171  0.42462710  0.19505909    -0.16000
C269        C  0.47493574  0.40516945  0.18695586    -0.14000
H270        H  0.48159470  0.34593435  0.17089872     0.21300
H271        H  0.35051194  0.32064717  0.18551740     0.17400
H272        H  0.32665593  0.25057418  0.17095599     0.19900
H273        H  0.00556422  0.41653230  0.18573516     0.13200
C274        C  0.28568901  0.41298090  0.93007360     0.17100
C275        C  0.30987915  0.43869507  0.94355162    -0.31900
C276        C  0.33810417  0.43240067  0.95092726     0.21500
C277        C  0.34201584  0.40182224  0.94518034     0.03700
C278        C  0.31823239  0.37647105  0.93147261    -0.21700
C279        C  0.29007688  0.38282183  0.92406242     0.12900
S280        S  0.24859580  0.41466866  0.92011703    -0.05300
C281        C  0.23954842  0.37489098  0.90750819    -0.08800
C282        C  0.26366499  0.36087037  0.91094644    -0.25400
S283        S  0.37726012  0.39845389  0.95619796    -0.02600
C284        C  0.38713088  0.43895583  0.96850896    -0.16000
C285        C  0.36417461  0.45405814  0.96424368    -0.14000
H286        H  0.30656835  0.46229400  0.94823266     0.21300
H287        H  0.32128710  0.35264292  0.92692622     0.17400
H288        H  0.26140853  0.33563281  0.90448009     0.19900
H289        H  0.36639238  0.47940181  0.97056354     0.13200
C290        C  0.09615792  0.22092583  0.93363731     0.17100
C291        C  0.07173443  0.19772874  0.94769413    -0.31900
C292        C  0.07686315  0.16818167  0.95433906     0.21500
C293        C  0.10559102  0.16241586  0.94761699     0.03700
C294        C  0.12996768  0.18553665  0.93344403    -0.21700
C295        C  0.12427488  0.21461652  0.92649594     0.12900
S296        S  0.09429235  0.25813706  0.92378087    -0.05300
C297        C  0.13084498  0.26440734  0.90946627    -0.08800
C298        C  0.14432394  0.23957306  0.91247443    -0.25400
S299        S  0.10701260  0.12499259  0.95766986    -0.02600
C300        C  0.06789518  0.11656791  0.97068342    -0.16000
C301        C  0.05498502  0.14180946  0.96746003    -0.14000
H302        H  0.04942889  0.20226985  0.95308766     0.21300
H303        H  0.15207278  0.18080523  0.92794104     0.17400
H304        H  0.16765045  0.24008038  0.90493561     0.19900
H305        H  0.03064169  0.14069181  0.97424360     0.13200
C306        C  0.08559883  0.38191815  0.92176678     0.17100
C307        C  0.05645314  0.38257460  0.93188853    -0.31900
C308        C  0.06726703  0.40999857  0.94606768     0.21500
C309        C  0.10526577  0.43598128  0.94974301     0.03700
C310        C  0.13425204  0.43533601  0.93965203    -0.21700
C311        C  0.12351660  0.40762186  0.92576368     0.12900
S312        S  0.07895328  0.34962437  0.90473154    -0.05300
C313        C  0.12770473  0.37091476  0.90340165    -0.08800
C314        C  0.14773956  0.40134017  0.91529059    -0.25400
S315        S  0.11279178  0.46754601  0.96714681    -0.02600
C316        C  0.06422455  0.44530070  0.96974982    -0.16000
C317        C  0.04344551  0.41504974  0.95766225    -0.14000
H318        H  0.02678288  0.36229846  0.92905004     0.21300
H319        H  0.16393812  0.45525118  0.94267056     0.17400
H320        H  0.17842150  0.41733786  0.91653579     0.19900
H321        H  0.01265160  0.39833260  0.95709840     0.13200
C322        C  0.07832162  0.44477802  0.84630367     0.17100
C323        C  0.10579968  0.44366665  0.85757554    -0.31900
C324        C  0.11159146  0.41254633  0.85545091     0.21500
C325        C  0.09084593  0.38343987  0.84283236     0.03700
C326        C  0.06344871  0.38467316  0.83141286    -0.21700
C327        C  0.05768797  0.41594950  0.83351240     0.12900
S328        S  0.06849946  0.48115906  0.84615378    -0.05300
C329        C  0.03731314  0.45812696  0.82816961    -0.08800
C330        C  0.03343558  0.42307609  0.82333348    -0.25400
S331        S  0.10046871  0.34676576  0.84363332    -0.02600
C332        C  0.13194019  0.37062052  0.86148382    -0.16000
C333        C  0.13590155  0.40590864  0.86570852    -0.14000
H334        H  0.12197588  0.46608988  0.86760269     0.21300
H335        H  0.04719894  0.36219577  0.82142740     0.17400
H336        H  0.01551534  0.40493155  0.81217394     0.19900
H337        H  0.15415107  0.42489949  0.87654427     0.13200
C338        C  0.11792514  0.20055866  0.84844915     0.17100
C339        C  0.11535135  0.17253968  0.83606641    -0.31900
C340        C  0.08388962  0.13548199  0.83777758     0.21500
C341        C  0.05626803  0.12656492  0.85124549     0.03700
C342        C  0.05919483  0.15442879  0.86382979    -0.21700
C343        C  0.09046714  0.19155105  0.86200469     0.12900
S344        S  0.15328848  0.24747315  0.84842340    -0.05300
C345        C  0.13131612  0.25489899  0.86714029    -0.08800
C346        C  0.09774833  0.22262888  0.87260594    -0.25400
S347        S  0.01868300  0.08079660  0.84995415    -0.02600
C348        C  0.03970662  0.07402879  0.83064883    -0.16000
C349        C  0.07509590  0.10509862  0.82629217    -0.14000
H350        H  0.13648174  0.17949930  0.82530422     0.21300
H351        H  0.03757616  0.14770730  0.87430229     0.17400
H352        H  0.07943303  0.22179860  0.88374016     0.19900
H353        H  0.09246402  0.10615854  0.81462810     0.13200
C354        C  0.37267699  0.44282520  0.84910308     0.17100
C355        C  0.34509727  0.44070825  0.86147622    -0.31900
C356        C  0.30792881  0.40975307  0.85965529     0.21500
C357        C  0.29848668  0.38152754  0.84639221     0.03700
C358        C  0.32622185  0.38348461  0.83401604    -0.21700
C359        C  0.36343517  0.41491577  0.83565068     0.12900
S360        S  0.41860544  0.47981429  0.84820924    -0.05300
C361        C  0.42525873  0.45848278  0.82900381    -0.08800
C362        C  0.39384936  0.42336475  0.82429955    -0.25400
S363        S  0.25152624  0.34613661  0.84688591    -0.02600
C364        C  0.24485597  0.36950516  0.86532713    -0.16000
C365        C  0.27733658  0.40349275  0.87018927    -0.14000
H366        H  0.35213748  0.46267796  0.87187093     0.21300
H367        H  0.31900679  0.36187841  0.82340486     0.17400
H368        H  0.39275128  0.40597974  0.81258341     0.19900
H369        H  0.27880937  0.42284812  0.88096910     0.13200
C370        C  0.37051340  0.45178452  0.77006208     0.17100
C371        C  0.33468605  0.44312198  0.76334707    -0.31900
C372        C  0.32385041  0.42578343  0.74576924     0.21500
C373        C  0.34804365  0.41861452  0.73509232     0.03700
C374        C  0.38366408  0.42708777  0.74185512    -0.21700
C375        C  0.39389110  0.44319781  0.75963873     0.12900
S376        S  0.38909561  0.47219844  0.79113880    -0.05300
C377        C  0.42778212  0.46687134  0.78623300    -0.08800
C378        C  0.42653338  0.45172706  0.76880870    -0.25400
S379        S  0.32986594  0.39762254  0.71411619    -0.02600
C380        C  0.28867296  0.39712198  0.72010453    -0.16000
C381        C  0.28945522  0.41313250  0.73726278    -0.14000
H382        H  0.31584079  0.44893469  0.77157888     0.21300
H383        H  0.40228138  0.42070509  0.73376939     0.17400
H384        H  0.44805664  0.44672328  0.76307146     0.19900
H385        H  0.26598505  0.41504006  0.74322829     0.13200
C386        C  0.05438332  0.13289712  0.77172183     0.17100
C387        C  0.06334962  0.16877438  0.76483775    -0.31900
C388        C  0.08194345  0.17981443  0.74761890     0.21500
C389        C  0.09056186  0.15593652  0.73749891     0.03700
C390        C  0.08221330  0.12035366  0.74454564    -0.21700
C391        C  0.06426489  0.10964374  0.76192590     0.12900
S392        S  0.03073970  0.11364592  0.79202648    -0.05300
C393        C  0.03582552  0.07453839  0.78770582    -0.08800
C394        C  0.05388705  0.07627210  0.77107208    -0.25400
S395        S  0.11184455  0.17404983  0.71657356    -0.02600
C396        C  0.11022419  0.21469641  0.72182959    -0.16000
C397        C  0.09360031  0.21381106  0.73877982    -0.14000
H398        H  0.05610753  0.18724459  0.77254411     0.21300
H399        H  0.08933390  0.10181137  0.73681833     0.17400
H400        H  0.05898288  0.05410716  0.76588314     0.19900
H401        H  0.09007779  0.23676491  0.74427446     0.13200
C402        C  0.08414020  0.45084265  0.76966020     0.17100
C403        C  0.11194603  0.44328859  0.76276172    -0.31900
C404        C  0.10469016  0.42435023  0.74557783     0.21500
C405        C  0.07178240  0.41428620  0.73553584     0.03700
C406        C  0.04389854  0.42133482  0.74256250    -0.21700
C407        C  0.05073076  0.43938269  0.75987238     0.12900
S408        S  0.08703810  0.47359556  0.79013498    -0.05300
C409        C  0.04176303  0.46554448  0.78580697    -0.08800
C410        C  0.02644036  0.44759953  0.76906713    -0.25400
S411        S  0.06835065  0.39222764  0.71484740    -0.02600
C412        C  0.11108403  0.39541608  0.72002177    -0.16000
C413        C  0.12728327  0.41310823  0.73678595    -0.14000
H414        H  0.13782515  0.45146658  0.77048474     0.21300
H415        H  0.01782778  0.41280767  0.73494313     0.17400
H416        H  0.99873170  0.44033438  0.76391921     0.19900
H417        H  0.15394500  0.41723949  0.74224892     0.13200
C418        C  0.20000085  0.24994928  0.42783235     0.17100
C419        C  0.19806211  0.22425921  0.41413577    -0.31900
C420        C  0.23252358  0.22991775  0.40678562     0.21500
C421        C  0.26722117  0.25991507  0.41279443     0.03700
C422        C  0.26916481  0.28511801  0.42667705    -0.21700
C423        C  0.23483517  0.27937430  0.43407207     0.12900
S424        S  0.16160542  0.24937487  0.43780386    -0.05300
C425        C  0.19292339  0.28854603  0.45074395    -0.08800
C426        C  0.23094922  0.30146534  0.44736192    -0.25400
S427        S  0.30576982  0.26295736  0.40187347    -0.02600
C428        C  0.27507306  0.22302779  0.38917009    -0.16000
C429        C  0.23684035  0.20833587  0.39326504    -0.14000
H430        H  0.17092477  0.20120616  0.40927413     0.21300
H431        H  0.29628768  0.30845885  0.43137487     0.17400
H432        H  0.25436314  0.32626480  0.45391984     0.19900
H433        H  0.21358648  0.18343714  0.38668775     0.13200
C434        C  0.03393786  0.28206670  0.43581744     0.17100
C435        C  0.00521043  0.28158537  0.42490563    -0.31900
C436        C  0.48755067  0.25332163  0.41155589     0.21500
C437        C  0.49725194  0.22520623  0.40956839     0.03700
C438        C  0.02528784  0.22415782  0.42088490    -0.21700
C439        C  0.04378289  0.25406050  0.43371783     0.12900
S440        S  0.06118668  0.31698858  0.45150345    -0.05300
C441        C  0.08620637  0.29372322  0.45497746    -0.08800
C442        C  0.07387138  0.26069767  0.44471559    -0.25400
S443        S  0.47204949  0.19194041  0.39286019    -0.02600
C444        C  0.44851218  0.21648462  0.38837462    -0.16000
C445        C  0.45968643  0.24853465  0.39937720    -0.14000
H446        H  0.99779694  0.30368932  0.42625345     0.21300
H447        H  0.03328593  0.20253116  0.41924727     0.17400
H448        H  0.08705481  0.24322081  0.44487484     0.19900
H449        H  0.44770883  0.26709473  0.39866518     0.13200
C450        C  0.27178428  0.00403599  0.40948874     0.17100
C451        C  0.27358816  0.48210997  0.42611542    -0.31900
C452        C  0.23895809  0.45317010  0.43327509     0.21500
C453        C  0.20432440  0.44726101  0.42662894     0.03700
C454        C  0.20281903  0.47076290  0.41281042    -0.21700
C455        C  0.23692217  0.00042184  0.40496783     0.12900
S456        S  0.30925209  0.03849838  0.39735113    -0.05300
C457        C  0.27773193  0.04858307  0.38624204    -0.08800
C458        C  0.24016825  0.02617611  0.39171742    -0.25400
S459        S  0.16546882  0.40929331  0.43631642    -0.02600
C460        C  0.19622664  0.40194072  0.44970816    -0.16000
C461        C  0.23446402  0.42732928  0.44671607    -0.14000
H462        H  0.30056699  0.48632514  0.43113543     0.21300
H463        H  0.17590466  0.96964576  0.40968176     0.17400
H464        H  0.21659730  0.02860984  0.38632583     0.19900
H465        H  0.25755008  0.42635736  0.45372217     0.13200
C466        C  0.27013850  0.26157149  0.61974376     0.17100
C467        C  0.29914213  0.25972549  0.61026721    -0.31900
C468        C  0.28839209  0.23228826  0.59622813     0.21500
C469        C  0.25047320  0.20766007  0.59172296     0.03700
C470        C  0.22134614  0.20897350  0.60149259    -0.21700
C471        C  0.23213349  0.23648652  0.61559365     0.12900
S472        S  0.27760753  0.29454463  0.63639178    -0.05300
C473        C  0.22900215  0.27416186  0.63792455    -0.08800
C474        C  0.20825065  0.24325852  0.62622905    -0.25400
S475        S  0.24368157  0.17715709  0.57378602    -0.02600
C476        C  0.29237914  0.19792085  0.57260915    -0.16000
C477        C  0.31254284  0.22647857  0.58542265    -0.14000
H478        H  0.32882498  0.27922611  0.61349378     0.21300
H479        H  0.19168475  0.18981341  0.59809331     0.17400
H480        H  0.17749286  0.22759520  0.62508484     0.19900
H481        H  0.34325785  0.24219137  0.58668549     0.13200
C482        C  0.00203587  0.23131970  0.61343440     0.17100
C483        C  0.47704311  0.20564202  0.60071751    -0.31900
C484        C  0.45375527  0.21540685  0.59057391     0.21500
C485        C  0.45518382  0.25002532  0.59331376     0.03700
C486        C  0.48037101  0.27667675  0.60627788    -0.21700
C487        C  0.00300536  0.26549184  0.61690596     0.12900
S488        S  0.03375564  0.22492018  0.62620850    -0.05300
C489        C  0.04885319  0.26894116  0.63623027    -0.08800
C490        C  0.02985261  0.28724965  0.62998523    -0.25400
S491        S  0.42319190  0.25560515  0.58032470    -0.02600
C492        C  0.40835863  0.21121394  0.57091172    -0.16000
C493        C  0.42685101  0.19296237  0.57768390    -0.14000
H494        H  0.47568403  0.17849742  0.59863579     0.21300
H495        H  0.48151329  0.30369421  0.60846642     0.17400
H496        H  0.03581291  0.31524590  0.63452469     0.19900
H497        H  0.42000515  0.16432809  0.57384166     0.13200
C498        C  0.23000532  0.48853093  0.60833736     0.17100
C499        C  0.22598275  0.00923484  0.59155709    -0.31900
C500        C  0.26077079  0.04073331  0.58607752     0.21500
C501        C  0.29452256  0.05007753  0.59514810     0.03700
C502        C  0.29516092  0.02783799  0.60983946    -0.21700
C503        C  0.26447108  0.49762943  0.61653928     0.12900
S504        S  0.19138342  0.45039858  0.61805534    -0.05300
C505        C  0.22196779  0.44616528  0.63313591    -0.08800
C506        C  0.26009783  0.47307269  0.63067881    -0.25400
S507        S  0.33333512  0.09067135  0.58733700    -0.02600
C508        C  0.30402392  0.09469652  0.57143168    -0.16000
C509        C  0.26612528  0.06625038  0.57227341    -0.14000
H510        H  0.19956652  0.00235137  0.58468118     0.21300
H511        H  0.32148111  0.03513376  0.61693243     0.17400
H512        H  0.28323647  0.47481062  0.63891383     0.19900
H513        H  0.24370034  0.06507508  0.56365630     0.13200
C514        C  0.24938977  0.21447771  0.51176292     0.17100
C515        C  0.22364173  0.21661378  0.49948313    -0.31900
C516        C  0.22009548  0.24938511  0.50027893     0.21500
C517        C  0.24092355  0.27860881  0.51283518     0.03700
C518        C  0.26634205  0.27628857  0.52525121    -0.21700
C519        C  0.27013667  0.24368639  0.52434727     0.12900
S520        S  0.25850661  0.17752251  0.51283158    -0.05300
C521        C  0.29024638  0.20143729  0.53057683    -0.08800
C522        C  0.29363382  0.23641290  0.53511146    -0.25400
S523        S  0.23325944  0.31639892  0.51118473    -0.02600
C524        C  0.20222784  0.29301669  0.49311231    -0.16000
C525        C  0.19756589  0.25728413  0.48909791    -0.14000
H526        H  0.20742294  0.19394637  0.48957886     0.21300
H527        H  0.28277344  0.29909629  0.53505641     0.17400
H528        H  0.31224396  0.25549365  0.54583099     0.19900
H529        H  0.17890010  0.23808724  0.47844593     0.13200
C530        C  0.24745137  0.46373287  0.51108900     0.17100
C531        C  0.27833164  0.99422136  0.52241204    -0.31900
C532        C  0.28260430  0.03085101  0.52145896     0.21500
C533        C  0.26244772  0.03937718  0.50868438     0.03700
C534        C  0.23687792  0.01146119  0.49628278    -0.21700
C535        C  0.22749880  0.47256718  0.49834311     0.12900
S536        S  0.23746004  0.41732726  0.50999656    -0.05300
C537        C  0.20658333  0.40980692  0.49191976    -0.08800
C538        C  0.20383098  0.44173874  0.48744113    -0.25400
S539        S  0.27034009  0.08494646  0.51033358    -0.02600
C540        C  0.30027570  0.09237866  0.52880960    -0.16000
C541        C  0.30474254  0.06130250  0.53286649    -0.14000
H542        H  0.29392737  0.98761859  0.53251411     0.21300
H543        H  0.22078313  0.01788112  0.48639906     0.17400
H544        H  0.18548406  0.44248696  0.47675106     0.19900
H545        H  0.32247319  0.06061081  0.54391306     0.13200
C546        C  0.03580038  0.28576694  0.51373444     0.17100
C547        C  0.50630618  0.28674208  0.52264834    -0.31900
C548        C  0.47083535  0.25275868  0.52250369     0.21500
C549        C  0.46545640  0.22048900  0.51309776     0.03700
C550        C  0.99372125  0.22014150  0.50361952    -0.21700
C551        C  0.02949620  0.25359804  0.50391597     0.12900
S552        S  0.08083500  0.32422667  0.51124985    -0.05300
C553        C  0.09089940  0.29670624  0.49665053    -0.08800
C554        C  0.06107694  0.25958190  0.49431009    -0.25400
S555        S  0.42061716  0.18178117  0.51507733    -0.02600
C556        C  0.40910174  0.20911622  0.52896081    -0.16000
C557        C  0.43845994  0.24645110  0.53151700    -0.14000
H558        H  0.51029618  0.31192586  0.52993816     0.21300
H559        H  0.98899971  0.19522132  0.49581783     0.17400
H560        H  0.06187820  0.23867196  0.48519365     0.19900
H561        H  0.43657875  0.26745837  0.54006660     0.13200
C562        C  0.33429401  0.66788269  0.56798132     0.46600
H563        H  0.33498312  0.66815376  0.58345354    -0.02400
C564        C  0.33264814  0.66695178  0.53177899     0.46700
H565        H  0.33212695  0.66674408  0.51633353    -0.02400
C566        C  0.37334346  0.69115667  0.55920157    -0.16100
C567        C  0.31755059  0.62789829  0.55967791    -0.15800
C568        C  0.31079609  0.68414523  0.55986458    -0.16200
C569        C  0.37340824  0.69073914  0.54010435    -0.16200
C570        C  0.31584129  0.62674756  0.54056677    -0.15800
C571        C  0.30994879  0.68425016  0.54074572    -0.16100
C572        C  0.16921521  0.83527696  0.49123934     0.46600
H573        H  0.17119223  0.83695768  0.50665212    -0.02400
C574        C  0.16385278  0.83091608  0.45509806     0.46700
H575        H  0.16160172  0.82918345  0.43966112    -0.02400
C576        C  0.18624490  0.81224943  0.48234894    -0.16100
C577        C  0.12763781  0.81538027  0.48385102    -0.15800
C578        C  0.18969395  0.87466793  0.48142714    -0.16200
C579        C  0.18321191  0.81038855  0.46328295    -0.16200
C580        C  0.12563261  0.81361925  0.46482757    -0.15800
C581        C  0.18625234  0.87172510  0.46239869    -0.16100
Zn582      Zn  0.14066031  0.78029937  0.67021655     1.49700
Zn583      Zn  0.13658544  0.85721878  0.66871328     1.49400
Zn584      Zn  0.16405968  0.83520008  0.70562702     1.49100
Zn585      Zn  0.21754117  0.86142780  0.66974699     1.49500
O586        O  0.16480075  0.83356245  0.67853125    -1.83000
O587        O  0.09370372  0.76591749  0.65509742    -0.73600
O588        O  0.11793800  0.87839763  0.68908037    -0.73400
O589        O  0.13743192  0.78208914  0.71658051    -0.72900
O590        O  0.09136849  0.81952590  0.65430027    -0.73600
O591        O  0.12558491  0.74420554  0.69201898    -0.73200
O592        O  0.13764375  0.86239338  0.71451871    -0.73800
O593        O  0.25439947  0.88271323  0.69125010    -0.73200
O594        O  0.16841469  0.89878758  0.65054297    -0.73900
O595        O  0.21697357  0.86444044  0.71618534    -0.73300
O596        O  0.22560400  0.90424602  0.65237840    -0.73800
O597        O  0.23042961  0.82676654  0.65514035    -0.73700
O598        O  0.17566845  0.77171449  0.65371706    -0.73500
C599        C  0.07814814  0.78477656  0.64976584     0.78300
C600        C  0.12092465  0.87802131  0.70669329     0.78800
C601        C  0.12486648  0.74901924  0.70949439     0.77700
C602        C  0.24986886  0.88149637  0.70881213     0.78100
C603        C  0.20312195  0.91449489  0.64561476     0.79300
C604        C  0.21059509  0.79248213  0.64939012     0.78300
C605        C  0.00141992  0.49889459  0.79002847     0.46600
H606        H  0.00174188  0.49989474  0.77462387    -0.02400
C607        C  0.00050315  0.49682061  0.82615097     0.46700
H608        H  0.00025569  0.49593230  0.84159624    -0.02400
C609        C  0.45796640  0.98147595  0.79883266    -0.16100
C610        C  0.01695754  0.97897523  0.79844131    -0.15800
C611        C  0.02129066  0.53863955  0.79891910    -0.16200
C612        C  0.45800083  0.98001081  0.81794075    -0.16200
C613        C  0.01666101  0.97764909  0.81759912    -0.15800
C614        C  0.02103155  0.53770393  0.81807514    -0.16100
C615        C  0.16465543  0.83054915  0.86483816     0.46600
H616        H  0.16578909  0.82876448  0.84945397    -0.02400
C617        C  0.16169725  0.83513324  0.90092553     0.46700
H618        H  0.16049858  0.83701619  0.91632805    -0.02400
C619        C  0.14370330  0.85150580  0.87171464    -0.16100
C620        C  0.14386455  0.79132382  0.87463073    -0.15800
C621        C  0.20430885  0.85208507  0.87428778    -0.16200
C622        C  0.14243817  0.85347181  0.89069522    -0.16200
C623        C  0.14237495  0.79427431  0.89361156    -0.15800
C624        C  0.20208837  0.85430976  0.89328101    -0.16100
C625        C  0.33288402  0.66440685  0.12430973     0.46600
H626        H  0.33073021  0.66245360  0.10899831    -0.02400
C627        C  0.33568217  0.66631998  0.16042662     0.46700
H628        H  0.33704609  0.66735067  0.17586899    -0.02400
C629        C  0.29359283  0.64478783  0.13335649    -0.16100
C630        C  0.35376940  0.64498311  0.13247793    -0.15800
C631        C  0.35326172  0.70523402  0.13211574    -0.16200
C632        C  0.29481426  0.64582892  0.15246724    -0.16200
C633        C  0.35526446  0.64596221  0.15159788    -0.15800
C634        C  0.35525333  0.70616048  0.15127507    -0.16100
C635        C  0.49811676  0.00041488  0.19765436     0.46600
H636        H  0.49795462  0.00063501  0.18220491    -0.02400
C637        C  0.49797930  0.99937164  0.23378431     0.46700
H638        H  0.49841213  0.00016635  0.24917322    -0.02400
C639        C  0.48042903  0.51939645  0.20895514    -0.16100
C640        C  0.47970608  0.95971990  0.20619117    -0.15800
C641        C  0.04209391  0.51914561  0.20764561    -0.16200
C642        C  0.48039135  0.51692699  0.22804086    -0.16200
C643        C  0.48000019  0.95948706  0.22534143    -0.15800
C644        C  0.04167809  0.51736746  0.22671424    -0.16100
Zn645      Zn  0.28160261  0.63899986  0.35409040     1.49700
Zn646      Zn  0.36139533  0.64059592  0.35299401     1.49400
Zn647      Zn  0.33608807  0.67135079  0.31907391     1.49100
Zn648      Zn  0.36127853  0.71945001  0.35551952     1.49500
O649        O  0.33483079  0.66742329  0.34570820    -1.83000
O650        O  0.27231066  0.59332650  0.36955080    -0.73600
O651        O  0.37841255  0.62233824  0.33086127    -0.73400
O652        O  0.28461226  0.64856754  0.30850303    -0.72900
O653        O  0.32855098  0.59641859  0.36951304    -0.73600
O654        O  0.24475946  0.62125736  0.33216267    -0.73200
O655        O  0.36230064  0.64705887  0.30747502    -0.73800
O656        O  0.37917194  0.76023561  0.33546778    -0.73200
O657        O  0.40750277  0.67464848  0.36812254    -0.73900
O658        O  0.36364155  0.72403229  0.31020323    -0.73300
O659        O  0.40591226  0.72848478  0.37101785    -0.73800
O660        O  0.32724302  0.72628662  0.37269989    -0.73700
O661        O  0.27095647  0.67271643  0.37104513    -0.73500
C662        C  0.29415339  0.58108414  0.37489617     0.78300
C663        C  0.37761762  0.62869831  0.31358990     0.78800
C664        C  0.25116672  0.62907677  0.31490450     0.77700
C665        C  0.37863268  0.75653990  0.31786821     0.78100
C666        C  0.42075910  0.70812780  0.37469742     0.79300
C667        C  0.29265559  0.70615505  0.37756378     0.78300
Zn668      Zn  0.47144175  0.94622105  0.00231405     1.49700
Zn669      Zn  0.50026078  0.49927973  0.03950819     1.49400
Zn670      Zn  0.05436473  0.52737722  0.00415776     1.49100
Zn671      Zn  0.47604560  0.52665258  0.00314539     1.49500
O672        O  0.50210799  0.50037275  0.01255095    -1.83000
O673        O  0.45158039  0.90715347  0.02306574    -0.73600
O674        O  0.05253225  0.52517238  0.05015668    -0.73400
O675        O  0.06298157  0.98824447  0.98995367    -0.72900
O676        O  0.46522477  0.94394527  0.04812724    -0.73600
O677        O  0.00693299  0.93552375  0.98607793    -0.73200
O678        O  0.09087384  0.54947300  0.02572777    -0.73800
O679        O  0.00973368  0.57084136  0.98655841    -0.73200
O680        O  0.47375193  0.52591837  0.04914849    -0.73900
O681        O  0.06362713  0.56921386  0.98663033    -0.73300
O682        O  0.45734622  0.54628352  0.02405731    -0.73800
O683        O  0.42973193  0.99267280  0.98433757    -0.73700
O684        O  0.42883173  0.93730128  0.98545599    -0.73500
C685        C  0.45114361  0.91119669  0.04062223     0.78300
C686        C  0.08566891  0.54471023  0.04319984     0.78800
C687        C  0.04230753  0.95558373  0.98257374     0.77700
C688        C  0.04369068  0.58329421  0.98098128     0.78100
C689        C  0.45837987  0.54320499  0.04162898     0.79300
C690        C  0.41603390  0.95801708  0.97924731     0.78300
C691        C  0.18158318  0.60560843  0.27485996     0.17100
C692        C  0.16329404  0.60548889  0.25834012    -0.31900
C693        C  0.12950935  0.57198434  0.25378112     0.21500
C694        C  0.11506601  0.53986827  0.26500978     0.03700
C695        C  0.13324876  0.54004213  0.28155204    -0.21700
C696        C  0.16655174  0.57378015  0.28631810     0.12900
S697        S  0.22324730  0.64307934  0.28257628    -0.05300
C698        C  0.21991705  0.61582162  0.30159478    -0.08800
C699        C  0.18822014  0.57965606  0.30189532    -0.25400
S700        S  0.07334478  0.50240356  0.25745388    -0.02600
C701        C  0.07478701  0.53048081  0.23917467    -0.16000
C702        C  0.10639084  0.56682313  0.23887770    -0.14000
H703        H  0.17471851  0.63048951  0.24952700     0.21300
H704        H  0.12165870  0.51513166  0.29043360     0.17400
H705        H  0.18228539  0.55838772  0.31247229     0.19900
H706        H  0.11132725  0.58865293  0.22879336     0.13200
C707        C  0.44466782  0.86662957  0.25372846     0.17100
C708        C  0.43426847  0.83042519  0.26063978    -0.31900
C709        C  0.41990323  0.82195030  0.27882731     0.21500
C710        C  0.41640765  0.84827980  0.28976259     0.03700
C711        C  0.42654333  0.88426430  0.28277961    -0.21700
C712        C  0.44049338  0.89253109  0.26456176     0.12900
S713        S  0.46317040  0.88324366  0.23215758    -0.05300
C714        C  0.46419027  0.92529038  0.23761879    -0.08800
C715        C  0.45159471  0.92583987  0.25548598    -0.25400
S716        S  0.39870693  0.83257937  0.31154614    -0.02600
C717        C  0.39546073  0.78990101  0.30569762    -0.16000
C718        C  0.40765368  0.78827347  0.28788697    -0.14000
H719        H  0.43714333  0.80978757  0.25224050     0.21300
H720        H  0.42360359  0.90490910  0.29114529     0.17400
H721        H  0.94954296  0.94952261  0.26184239     0.19900
H722        H  0.40735592  0.76358223  0.28186164     0.13200
C723        C  0.43774005  0.54530968  0.26839164     0.17100
C724        C  0.42308333  0.54809684  0.28549853    -0.31900
C725        C  0.41569453  0.57796145  0.28774513     0.21500
C726        C  0.42250800  0.60381982  0.27356045     0.03700
C727        C  0.43799602  0.60145737  0.25656743    -0.21700
C728        C  0.44539339  0.57150020  0.25433672     0.12900
S729        S  0.44797960  0.51089467  0.26298861    -0.05300
C730        C  0.46303597  0.53166906  0.24143905    -0.08800
C731        C  0.46041785  0.56419417  0.23890063    -0.25400
S732        S  0.40949028  0.63662570  0.27862660    -0.02600
C733        C  0.39515220  0.61540558  0.30010541    -0.16000
C734        C  0.40046012  0.58480744  0.30318130    -0.14000
H735        H  0.41733115  0.52765770  0.29649039     0.21300
H736        H  0.44351452  0.62170111  0.24551188     0.17400
H737        H  0.97682017  0.58660488  0.22705743     0.19900
H738        H  0.39254690  0.56786794  0.31576073     0.13200
C739        C  0.38819154  0.79905265  0.10432422     0.17100
C740        C  0.40123304  0.83646094  0.09834593    -0.31900
C741        C  0.41207956  0.84479589  0.07966616     0.21500
C742        C  0.40938015  0.81707798  0.06738474     0.03700
C743        C  0.39642961  0.77974066  0.07342323    -0.21700
C744        C  0.38635896  0.77164191  0.09219345     0.12900
S745        S  0.37417931  0.78303884  0.12639410    -0.05300
C746        C  0.36745003  0.73910140  0.11956396    -0.08800
C747        C  0.37453295  0.73748172  0.10076961    -0.25400
S748        S  0.42384262  0.83296480  0.04525352    -0.02600
C749        C  0.43424976  0.87757282  0.05274359    -0.16000
C750        C  0.42653669  0.87962546  0.07136094    -0.14000
H751        H  0.40327482  0.85818680  0.10786335     0.21300
H752        H  0.39477105  0.75808264  0.06397787     0.17400
H753        H  0.37186349  0.71299053  0.09349023     0.19900
H754        H  0.43140505  0.90531901  0.07846654     0.13200
C755        C  0.17731618  0.60113957  0.07148639     0.18300
C756        C  0.21318982  0.62795292  0.07842835    -0.31900
C757        C  0.22350782  0.62088540  0.09592708     0.21500
C758        C  0.19956605  0.58835205  0.10597483     0.03700
C759        C  0.16326320  0.56202701  0.09926315    -0.21700
C760        C  0.15269877  0.56936345  0.08187326     0.12900
S761        S  0.15994457  0.60377877  0.05026753    -0.05300
C762        C  0.11863674  0.56226986  0.05572451    -0.08800
C763        C  0.11872522  0.54720236  0.07298526    -0.25400
S764        S  0.21871217  0.58376323  0.12625667    -0.02600
C765        C  0.25877245  0.62721368  0.12160280    -0.16000
C766        C  0.25723415  0.64339281  0.10488949    -0.14000
H767        H  0.23236311  0.65303562  0.07047273     0.21300
H768        H  0.14425016  0.53677043  0.10714941     0.17400
H769        H  0.09532569  0.52116791  0.07861308     0.19900
H770        H  0.27976702  0.67025363  0.09948276     0.13200
C771        C  0.41829664  0.59661405  0.06861600     0.17100
C772        C  0.40673761  0.62187386  0.07496963    -0.31900
C773        C  0.39378378  0.61764931  0.09335632     0.21500
C774        C  0.39174824  0.58927352  0.10480149     0.03700
C775        C  0.40380343  0.56437229  0.09856989    -0.21700
C776        C  0.41734392  0.56895648  0.08030325     0.12900
S777        S  0.43490782  0.59681506  0.04677527    -0.05300
C778        C  0.44155441  0.55994429  0.05370863    -0.08800
C779        C  0.43095155  0.54803695  0.07186508    -0.25400
S780        S  0.37371711  0.58804348  0.12632124    -0.02600
C781        C  0.37012803  0.62726705  0.12018143    -0.16000
C782        C  0.38177196  0.63960968  0.10211839    -0.14000
H783        H  0.40785648  0.64386915  0.06601256     0.21300
H784        H  0.40274379  0.54245048  0.10756050     0.17400
H785        H  0.43310215  0.52524565  0.07853339     0.19900
H786        H  0.38188500  0.66358208  0.09560005     0.13200
C787        C  0.42376778  0.61737377  0.17313021     0.17100
C788        C  0.45537503  0.61333979  0.17723540    -0.31900
C789        C  0.44856154  0.57878225  0.18514935     0.21500
C790        C  0.41185229  0.54969244  0.18902311     0.03700
C791        C  0.38023687  0.55371689  0.18492045    -0.21700
C792        C  0.38704250  0.58819007  0.17690445     0.12900
S793        S  0.42597556  0.65601691  0.16233866    -0.05300
C794        C  0.37692281  0.63242343  0.16265075    -0.08800
C795        C  0.35999260  0.59689351  0.17113012    -0.25400
S796        S  0.40965123  0.51081456  0.19953093    -0.02600
C797        C  0.45868015  0.53396636  0.19874338    -0.16000
C798        C  0.47558852  0.56966956  0.19045434    -0.14000
H799        H  0.48403893  0.63604499  0.17422937     0.21300
H800        H  0.35155835  0.53091726  0.18782052     0.17400
H801        H  0.32954757  0.57751104  0.17188415     0.19900
H802        H  0.50604064  0.58876742  0.18939397     0.13200
C803        C  0.20535947  0.58799435  0.18185529     0.17100
C804        C  0.17566763  0.55928893  0.19228911    -0.31900
C805        C  0.13962353  0.55584356  0.19088905     0.21500
C806        C  0.13329762  0.57994874  0.17971630     0.03700
C807        C  0.16303451  0.60878279  0.16935566    -0.21700
C808        C  0.19909458  0.61225873  0.17076214     0.12900
S809        S  0.25043333  0.59492454  0.18042353    -0.05300
C810        C  0.26046707  0.63000800  0.16428976    -0.08800
C811        C  0.23096011  0.63713519  0.16103508    -0.25400
S812        S  0.08781036  0.57204600  0.18061241    -0.02600
C813        C  0.07758964  0.53666934  0.19660215    -0.16000
C814        C  0.10756842  0.53048196  0.20032646    -0.14000
H815        H  0.18035202  0.54024710  0.20098734     0.21300
H816        H  0.15826282  0.62759810  0.16052927     0.17400
H817        H  0.23191322  0.65741491  0.15095009     0.19900
H818        H  0.10648795  0.50979294  0.21018517     0.13200
C819        C  0.42380939  0.80459515  0.17154531     0.17100
C820        C  0.45530983  0.84099197  0.17485585    -0.31900
C821        C  0.44839772  0.86902299  0.18224675     0.21500
C822        C  0.41172011  0.86103570  0.18629495     0.03700
C823        C  0.38025092  0.82460429  0.18308037    -0.21700
C824        C  0.38714781  0.79661084  0.17564975     0.12900
S825        S  0.42600154  0.76773216  0.16123338    -0.05300
C826        C  0.37702593  0.74163516  0.16214179    -0.08800
C827        C  0.36012598  0.76015200  0.17057768    -0.25400
S828        S  0.40938195  0.89807529  0.19624360    -0.02600
C829        C  0.45832821  0.92442715  0.19518499    -0.16000
C830        C  0.47535122  0.90565563  0.18713937    -0.14000
H831        H  0.48393253  0.84726758  0.17166832     0.21300
H832        H  0.35161940  0.81836925  0.18621563     0.17400
H833        H  0.32967799  0.74864963  0.17155864     0.19900
H834        H  0.00541275  0.91737123  0.18585202     0.13200
C835        C  0.28118580  0.91202330  0.92831038     0.17100
C836        C  0.30534315  0.93798724  0.94173447    -0.31900
C837        C  0.33520397  0.93341546  0.94833468     0.21500
C838        C  0.34068134  0.90421376  0.94188270     0.03700
C839        C  0.31703672  0.87876231  0.92815233    -0.21700
C840        C  0.28722732  0.88338711  0.92153289     0.12900
S841        S  0.24229915  0.91165762  0.91928061    -0.05300
C842        C  0.23473463  0.87319735  0.90596164    -0.08800
C843        C  0.26066136  0.86103975  0.90853166    -0.25400
S844        S  0.37712522  0.90212102  0.95236452    -0.02600
C845        C  0.38534736  0.94125555  0.96543464    -0.16000
C846        C  0.36115331  0.95517563  0.96171409    -0.14000
H847        H  0.30069638  0.96037629  0.94701465     0.21300
H848        H  0.32131775  0.85600542  0.92307499     0.17400
H849        H  0.25970385  0.83692040  0.90147010     0.19900
H850        H  0.36201128  0.97933400  0.96868158     0.13200
C851        C  0.08889390  0.71863884  0.93063438     0.17100
C852        C  0.06557508  0.69656259  0.94526730    -0.31900
C853        C  0.06882437  0.66534494  0.95100937     0.21500
C854        C  0.09440925  0.65670309  0.94268365     0.03700
C855        C  0.11729432  0.67841333  0.92785637    -0.21700
C856        C  0.11382548  0.70943826  0.92201820     0.12900
S857        S  0.09021017  0.75845353  0.92211980    -0.05300
C858        C  0.12401623  0.76211242  0.90657402    -0.08800
C859        C  0.13401992  0.73429278  0.90806458    -0.25400
S860        S  0.09519098  0.61863180  0.95213877    -0.02600
C861        C  0.06024041  0.61396228  0.96724478    -0.16000
C862        C  0.04872395  0.64054735  0.96501630    -0.14000
H863        H  0.04600532  0.70359132  0.95197624     0.21300
H864        H  0.13714562  0.67162196  0.92127049     0.17400
H865        H  0.15538579  0.73287101  0.89964703     0.19900
H866        H  0.02719894  0.64190256  0.97333082     0.13200
C867        C  0.08104951  0.87992456  0.92022877     0.17100
C868        C  0.05195602  0.87972212  0.93082087    -0.31900
C869        C  0.06277604  0.90712049  0.94502743     0.21500
C870        C  0.10073011  0.93385486  0.94829032     0.03700
C871        C  0.12966325  0.93413884  0.93769511    -0.21700
C872        C  0.11894181  0.90648261  0.92375850     0.12900
S873        S  0.07446384  0.84756880  0.90322523    -0.05300
C874        C  0.12321626  0.87001227  0.90121973    -0.08800
C875        C  0.14319889  0.90088520  0.91288709    -0.25400
S876        S  0.10827099  0.96504289  0.96589507    -0.02600
C877        C  0.05977566  0.94172417  0.96912683    -0.16000
C878        C  0.03901491  0.91137207  0.95706952    -0.14000
H879        H  0.02233476  0.85875945  0.92833782     0.21300
H880        H  0.15932920  0.95465867  0.94040222     0.17400
H881        H  0.17391093  0.91746683  0.91382687     0.19900
H882        H  0.00825153  0.89396996  0.95686172     0.13200
C883        C  0.07724699  0.94651242  0.84484320     0.17100
C884        C  0.10700328  0.94584452  0.85431035    -0.31900
C885        C  0.10865588  0.91213162  0.85350387     0.21500
C886        C  0.08170238  0.88015909  0.84391476     0.03700
C887        C  0.05176884  0.88076569  0.83446008    -0.21700
C888        C  0.05026581  0.91468095  0.83514175     0.12900
S889        S  0.07195457  0.98565058  0.84309266    -0.05300
C890        C  0.03378115  0.95935084  0.82863199    -0.08800
C891        C  0.02475346  0.92172242  0.82603671    -0.25400
S892        S  0.08779636  0.84135901  0.84570472    -0.02600
C893        C  0.12675360  0.86855146  0.85964557    -0.16000
C894        C  0.13476903  0.90579291  0.86229812    -0.14000
H895        H  0.12816918  0.97065974  0.86186641     0.21300
H896        H  0.03067020  0.85598056  0.82686819     0.17400
H897        H  0.00238379  0.90153642  0.81693459     0.19900
H898        H  0.15716304  0.92640892  0.87126009     0.13200
C899        C  0.11625776  0.69865895  0.84781361     0.17100
C900        C  0.11568347  0.66945160  0.83705551    -0.31900
C901        C  0.08276403  0.63322846  0.83770134     0.21500
C902        C  0.05175297  0.62624584  0.84859814     0.03700
C903        C  0.05254071  0.65532363  0.85956192    -0.21700
C904        C  0.08539222  0.69160882  0.85882683     0.12900
S905        S  0.15338244  0.74468805  0.84886389    -0.05300
C906        C  0.12739694  0.75434428  0.86460099    -0.08800
C907        C  0.09150959  0.72352140  0.86837786    -0.25400
S908        S  0.01333982  0.58120989  0.84623620    -0.02600
C909        C  0.03896130  0.57216734  0.83000872    -0.16000
C910        C  0.07587493  0.60197365  0.82732142    -0.14000
H911        H  0.13959449  0.67487502  0.82831733     0.21300
H912        H  0.02833577  0.65010020  0.86801840     0.17400
H913        H  0.07125662  0.72424510  0.87791999     0.19900
H914        H  0.09563304  0.60160559  0.81732312     0.13200
C915        C  0.36896205  0.94574022  0.84841258     0.17100
C916        C  0.34014517  0.94373884  0.85990562    -0.31900
C917        C  0.30383012  0.91112311  0.85854195     0.21500
C918        C  0.29644144  0.88139530  0.84651502     0.03700
C919        C  0.32539322  0.88322839  0.83509986    -0.21700
C920        C  0.36167583  0.91613581  0.83629177     0.12900
S921        S  0.41411330  0.98422359  0.84696475    -0.05300
C922        C  0.42295236  0.96080872  0.82940640    -0.08800
C923        C  0.39283245  0.92437523  0.82557138    -0.25400
S924        S  0.25030066  0.84424728  0.84719792    -0.02600
C925        C  0.24109003  0.86888578  0.86404380    -0.16000
C926        C  0.27219928  0.90436481  0.86838101    -0.14000
H927        H  0.34559931  0.96693479  0.86927142     0.21300
H928        H  0.31975303  0.86032762  0.82549851     0.17400
H929        H  0.39308391  0.90585134  0.81475130     0.19900
H930        H  0.27190443  0.92413819  0.87843658     0.13200
C931        C  0.36547627  0.95176677  0.77117360     0.17100
C932        C  0.32935928  0.94290175  0.76468448    -0.31900
C933        C  0.31842684  0.92625957  0.74692912     0.21500
C934        C  0.34274904  0.91977351  0.73598065     0.03700
C935        C  0.37847327  0.92818485  0.74256210    -0.21700
C936        C  0.38891282  0.94380420  0.76042224     0.12900
S937        S  0.38462025  0.97204266  0.79223323    -0.05300
C938        C  0.42377398  0.96777284  0.78678336    -0.08800
C939        C  0.42199581  0.95268842  0.76928530    -0.25400
S940        S  0.32483723  0.90003186  0.71477633    -0.02600
C941        C  0.28352797  0.89917190  0.72088792    -0.16000
C942        C  0.28403454  0.91402791  0.73837094    -0.14000
H943        H  0.31051530  0.94831767  0.77314532     0.21300
H944        H  0.39718490  0.92239582  0.73419796     0.17400
H945        H  0.44352165  0.94791666  0.76328522     0.19900
H946        H  0.26045765  0.91551884  0.74449268     0.13200
C947        C  0.05622394  0.63281202  0.77172916     0.17100
C948        C  0.06610602  0.66939072  0.76545110    -0.31900
C949        C  0.08284316  0.68034872  0.74779631     0.21500
C950        C  0.08875945  0.65572454  0.73672213     0.03700
C951        C  0.07943641  0.61940513  0.74313319    -0.21700
C952        C  0.06343866  0.60878476  0.76093753     0.12900
S953        S  0.03480737  0.61366481  0.79249810    -0.05300
C954        C  0.03734436  0.57344306  0.78705700    -0.08800
C955        C  0.05295355  0.57493295  0.76967570    -0.25400
S956        S  0.10814111  0.67387575  0.71547740    -0.02600
C957        C  0.10933748  0.71552178  0.72178676    -0.16000
C958        C  0.09499487  0.71490083  0.73936903    -0.14000
H959        H  0.06100544  0.68847132  0.77395262     0.21300
H960        H  0.08448251  0.60028295  0.73463214     0.17400
H961        H  0.05664988  0.55244924  0.76369618     0.19900
H962        H  0.09329756  0.73838249  0.74558361     0.13200
C963        C  0.07611423  0.94624770  0.76975417     0.17100
C964        C  0.10172290  0.93537548  0.76324708    -0.31900
C965        C  0.09665221  0.92120580  0.74503670     0.21500
C966        C  0.06800102  0.91875409  0.73361213     0.03700
C967        C  0.04221723  0.92935508  0.74020658    -0.21700
C968        C  0.04677493  0.94266779  0.75858093     0.12900
S969        S  0.07720757  0.96411429  0.79137365    -0.05300
C970        C  0.03614941  0.96468398  0.78577059    -0.08800
C971        C  0.02396553  0.95318186  0.76764436    -0.25400
S972        S  0.06695130  0.90100932  0.71188634    -0.02600
C973        C  0.10479647  0.89583947  0.71854338    -0.16000
C974        C  0.11766968  0.90785565  0.73649872    -0.14000
H975        H  0.12432588  0.93745803  0.77204495     0.21300
H976        H  0.01933236  0.92688453  0.73149822     0.17400
H977        H  0.99953311  0.95216060  0.76123835     0.19900
H978        H  0.14101546  0.90654688  0.74301903     0.13200
C979        C  0.20375574  0.75206927  0.42829642     0.17100
C980        C  0.20181107  0.72695591  0.41437124    -0.31900
C981        C  0.23614640  0.73058298  0.40823312     0.21500
C982        C  0.27083096  0.75799541  0.41565324     0.03700
C983        C  0.27271151  0.78254590  0.42985783    -0.21700
C984        C  0.23839446  0.77895418  0.43596964     0.12900
S985        S  0.16557377  0.75378171  0.43676194    -0.05300
C986        C  0.19650888  0.79057801  0.45095851    -0.08800
C987        C  0.23438231  0.80107614  0.44915198    -0.25400
S988        S  0.30939383  0.75931077  0.40569425    -0.02600
C989        C  0.27847001  0.72226518  0.39151145    -0.16000
C990        C  0.24031026  0.70957357  0.39445970    -0.14000
H991        H  0.17480750  0.70602929  0.40834364     0.21300
H992        H  0.29977080  0.80397801  0.43563140     0.17400
H993        H  0.25761374  0.82411763  0.45676443     0.19900
H994        H  0.21704830  0.68683618  0.38672176     0.13200
C995        C  0.03845128  0.78657645  0.43481742     0.17100
C996        C  0.00899421  0.78594504  0.42446298    -0.31900
C997        C  0.49164586  0.75817143  0.41100838     0.21500
C998        C  0.50598998  0.73466416  0.40613636     0.03700
C999        C  0.03344825  0.73259443  0.41738589    -0.21700
C1000       C  0.05038111  0.76057137  0.43119577     0.12900
S1001       S  0.06370194  0.81899581  0.45186249    -0.05300
C1002       C  0.09058768  0.79730334  0.45380703    -0.08800
C1003       C  0.08033792  0.76667649  0.44206904    -0.25400
S1004       S  0.48242097  0.70366695  0.38843251    -0.02600
C1005       C  0.45331665  0.72303769  0.38733332    -0.16000
C1006       C  0.46149487  0.75183492  0.40009916    -0.14000
H1007       H  0.99975122  0.80637279  0.42706478     0.21300
H1008       H  0.04294763  0.71239993  0.41466813     0.17400
H1009       H  0.09458298  0.75027330  0.44127621     0.19900
H1010       H  0.44562148  0.76659751  0.40161666     0.13200
C1011       C  0.27204778  0.50510299  0.41201838     0.17100
C1012       C  0.27458763  0.98070724  0.42300117    -0.31900
C1013       C  0.24084112  0.95323544  0.43151991     0.21500
C1014       C  0.20585223  0.94900484  0.42666143     0.03700
C1015       C  0.20316611  0.97279042  0.41339586    -0.21700
C1016       C  0.23744803  0.49979051  0.40570086     0.12900
S1017       S  0.31080146  0.54102313  0.40117990    -0.05300
C1018       C  0.28009723  0.54940337  0.38820545    -0.08800
C1019       C  0.24188844  0.52539834  0.39213506    -0.25400
S1020       S  0.16795150  0.91267828  0.43776228    -0.02600
C1021       C  0.19965327  0.90388372  0.44942213    -0.16000
C1022       C  0.23748366  0.92744800  0.44476986    -0.14000
H1023       H  0.30181938  0.98365808  0.42660829     0.21300
H1024       H  0.17583494  0.46632282  0.40766836     0.17400
H1025       H  0.21865799  0.52658862  0.38541595     0.19900
H1026       H  0.26096269  0.92525192  0.45048531     0.13200
C1027       C  0.26933432  0.76205443  0.61983338     0.17100
C1028       C  0.29807793  0.75807041  0.61126072    -0.31900
C1029       C  0.28760288  0.73222417  0.59641337     0.21500
C1030       C  0.25022160  0.71127247  0.59026788     0.03700
C1031       C  0.22131597  0.71471327  0.59908709    -0.21700
C1032       C  0.23177486  0.74047096  0.61401764     0.12900
S1033       S  0.27654932  0.79333566  0.63745097    -0.05300
C1034       C  0.22834552  0.77670128  0.63720594    -0.08800
C1035       C  0.20800301  0.74839900  0.62413528    -0.25400
S1036       S  0.24373717  0.68221825  0.57166017    -0.02600
C1037       C  0.29189071  0.69852133  0.57230893    -0.16000
C1038       C  0.31152181  0.72465012  0.58628916    -0.14000
H1039       H  0.32740727  0.77471662  0.61581834     0.21300
H1040       H  0.19204774  0.69832329  0.59441569     0.17400
H1041       H  0.17762222  0.73516436  0.62180914     0.19900
H1042       H  0.34180065  0.73759109  0.58880652     0.13200
C1043       C  0.99627021  0.72755530  0.61596843     0.17100
C1044       C  0.47019786  0.70076718  0.60326493    -0.31900
C1045       C  0.44924971  0.71196820  0.59216627     0.21500
C1046       C  0.45379406  0.74820751  0.59353684     0.03700
C1047       C  0.48042907  0.77535797  0.60579121    -0.21700
C1048       C  0.00195953  0.76428908  0.61676898     0.12900
S1049       S  0.02486234  0.71972928  0.63043096    -0.05300
C1050       C  0.04502971  0.76662313  0.63740908    -0.08800
C1051       C  0.02982776  0.78681923  0.62911444    -0.25400
S1052       S  0.42403381  0.75540305  0.57965319    -0.02600
C1053       C  0.40696789  0.70987042  0.57122098    -0.16000
C1054       C  0.42232472  0.68980326  0.57932361    -0.14000
H1055       H  0.46629021  0.67233434  0.60225922     0.21300
H1056       H  0.48435500  0.80380512  0.60677701     0.17400
H1057       H  0.03948828  0.81673626  0.63154146     0.19900
H1058       H  0.41352279  0.66030599  0.57628412     0.13200
C1059       C  0.22655772  0.98736685  0.60652278     0.17100
C1060       C  0.22838502  0.50994041  0.59346527    -0.31900
C1061       C  0.26266816  0.54127035  0.58746189     0.21500
C1062       C  0.29705027  0.55097109  0.59595558     0.03700
C1063       C  0.29877141  0.52910259  0.61059592    -0.21700
C1064       C  0.26049882  0.99632606  0.61526239     0.12900
S1065       S  0.18739293  0.94897465  0.61585420    -0.05300
C1066       C  0.21725092  0.94476469  0.63149656    -0.08800
C1067       C  0.25539748  0.97172920  0.62945053    -0.25400
S1068       S  0.33509375  0.59144555  0.58746388    -0.02600
C1069       C  0.30448953  0.59476254  0.57207132    -0.16000
C1070       C  0.26680334  0.56624004  0.57360365    -0.14000
H1071       H  0.20150524  0.50279805  0.58702599     0.21300
H1072       H  0.32558006  0.53660904  0.61722876     0.17400
H1073       H  0.27811679  0.97358882  0.63807944     0.19900
H1074       H  0.24367259  0.56458631  0.56539659     0.13200
C1075       C  0.25247537  0.71596933  0.51044780     0.17100
C1076       C  0.22717965  0.71853994  0.49805157    -0.31900
C1077       C  0.22226114  0.75039840  0.49965379     0.21500
C1078       C  0.24162873  0.77850569  0.51292052     0.03700
C1079       C  0.26671599  0.77582280  0.52536459    -0.21700
C1080       C  0.27164879  0.74402933  0.52377160     0.12900
S1081       S  0.26215251  0.67938512  0.51113009    -0.05300
C1082       C  0.29151056  0.70169470  0.52988263    -0.08800
C1083       C  0.29439628  0.73625616  0.53475342    -0.25400
S1084       S  0.23281120  0.81558899  0.51206979    -0.02600
C1085       C  0.20338574  0.79354346  0.49332754    -0.16000
C1086       C  0.19969618  0.75845937  0.48865991    -0.14000
H1087       H  0.21210310  0.69677344  0.48758111     0.21300
H1088       H  0.28187373  0.79765092  0.53579645     0.17400
H1089       H  0.31170760  0.75446810  0.54603602     0.19900
H1090       H  0.18198024  0.73997311  0.47756570     0.13200
C1091       C  0.25241077  0.96615562  0.51012192     0.17100
C1092       C  0.27335824  0.49159244  0.52346612    -0.31900
C1093       C  0.27817729  0.52843721  0.52249909     0.21500
C1094       C  0.25816329  0.53724946  0.50977888     0.03700
C1095       C  0.23234269  0.50942381  0.49736028    -0.21700
C1096       C  0.23218819  0.97473567  0.49742318     0.12900
S1097       S  0.24210514  0.91961316  0.50929948    -0.05300
C1098       C  0.21049695  0.91175524  0.49152647    -0.08800
C1099       C  0.20795530  0.94367660  0.48688021    -0.25400
S1100       S  0.26731185  0.58332981  0.51124947    -0.02600
C1101       C  0.29791148  0.59072153  0.52944881    -0.16000
C1102       C  0.30130985  0.55905398  0.53364564    -0.14000
H1103       H  0.28892599  0.48479477  0.53349477     0.21300
H1104       H  0.21656687  0.51614730  0.48742251     0.17400
H1105       H  0.18917639  0.94423079  0.47638990     0.19900
H1106       H  0.31925058  0.55816468  0.54452262     0.13200
C1107       C  0.03778293  0.78564914  0.51318206     0.17100
C1108       C  0.50843003  0.78383827  0.52435890    -0.31900
C1109       C  0.47188269  0.75132757  0.52298243     0.21500
C1110       C  0.46454140  0.72115135  0.51129866     0.03700
C1111       C  0.99473666  0.72167010  0.50122210    -0.21700
C1112       C  0.03090140  0.75471456  0.50214817     0.12900
S1113       S  0.08337174  0.82368267  0.51163840    -0.05300
C1114       C  0.09291134  0.79793458  0.49562610    -0.08800
C1115       C  0.06247299  0.76145171  0.49224737    -0.25400
S1116       S  0.41856520  0.68368922  0.51234727    -0.02600
C1117       C  0.40921764  0.70866509  0.52893922    -0.16000
C1118       C  0.44014340  0.74466498  0.53276008    -0.14000
H1119       H  0.51396132  0.80726282  0.53357885     0.21300
H1120       H  0.98960572  0.69764220  0.49254706     0.17400
H1121       H  0.06293548  0.74150838  0.48233852     0.19900
H1122       H  0.43974422  0.76489898  0.54240627     0.13200
C1123       C  0.83344724  0.16884873  0.56842966     0.46600
H1124       H  0.83385390  0.16882050  0.58390274    -0.02400
C1125       C  0.83211661  0.16866924  0.53220627     0.46700
H1126       H  0.83187940  0.16884649  0.51675927    -0.02400
C1127       C  0.87267367  0.19222951  0.55983318    -0.16100
C1128       C  0.81663646  0.12904407  0.55985019    -0.15800
C1129       C  0.81007450  0.18520238  0.56028617    -0.16200
C1130       C  0.87264170  0.19211881  0.54076247    -0.16200
C1131       C  0.81546509  0.12838058  0.54074377    -0.15800
C1132       C  0.80915826  0.18558404  0.54122858    -0.16100
C1133       C  0.66773454  0.33518663  0.49090120     0.46600
H1134       H  0.67046121  0.33711855  0.50628958    -0.02400
C1135       C  0.66033404  0.32995570  0.45484063     0.46700
H1136       H  0.65723659  0.32780675  0.43944079    -0.02400
C1137       C  0.68470310  0.31237188  0.48171644    -0.16100
C1138       C  0.62587179  0.31497433  0.48403612    -0.15800
C1139       C  0.68727154  0.37435195  0.48098714    -0.16200
C1140       C  0.68037828  0.30977321  0.46270852    -0.16200
C1141       C  0.62264075  0.31253121  0.46506664    -0.15800
C1142       C  0.68290996  0.37104580  0.46199264    -0.16100
Zn1143     Zn  0.64162483  0.28134691  0.67065318     1.49700
Zn1144     Zn  0.63971355  0.35885694  0.66988076     1.49400
Zn1145     Zn  0.66870126  0.33591781  0.70625830     1.49100
Zn1146     Zn  0.71986158  0.36168336  0.66994308     1.49500
O1147       O  0.66746048  0.33445978  0.67914621    -1.83000
O1148       O  0.59611987  0.26915514  0.65480070    -0.73600
O1149       O  0.62271191  0.37925000  0.69113148    -0.73400
O1150       O  0.64092573  0.28282583  0.71701228    -0.72900
O1151       O  0.59377205  0.32274015  0.65469274    -0.73600
O1152       O  0.62486997  0.24477431  0.69222124    -0.73200
O1153       O  0.64490879  0.36475775  0.71621853    -0.73800
O1154       O  0.75810962  0.38215238  0.69065233    -0.73200
O1155       O  0.67270030  0.40183683  0.65255302    -0.73900
O1156       O  0.72204223  0.36355102  0.71601889    -0.73300
O1157       O  0.72909868  0.40535516  0.65314213    -0.73800
O1158       O  0.73062968  0.32640708  0.65515156    -0.73700
O1159       O  0.67591137  0.27120182  0.65470229    -0.73500
C1160       C  0.58084326  0.28831465  0.64952231     0.78300
C1161       C  0.62747459  0.37987472  0.70866056     0.78800
C1162       C  0.62589970  0.24965831  0.70975061     0.77700
C1163       C  0.75449208  0.38060839  0.70823218     0.78100
C1164       C  0.70714092  0.41695245  0.64722140     0.79300
C1165       C  0.71058149  0.29180837  0.64997567     0.78300
C1166       C  0.49799314  0.00109193  0.79032492     0.46600
H1167       H  0.49788324  0.00255346  0.77493824    -0.02400
C1168       C  0.49839410  0.99929189  0.82644572     0.46700
H1169       H  0.49862940  0.99834062  0.84188678    -0.02400
C1170       C  0.96112853  0.47856576  0.79821266    -0.16100
C1171       C  0.52225326  0.48149579  0.79845260    -0.15800
C1172       C  0.51894642  0.04076937  0.79925108    -0.16200
C1173       C  0.96039634  0.47681129  0.81733261    -0.16200
C1174       C  0.52130214  0.47947000  0.81751794    -0.15800
C1175       C  0.51955988  0.04014187  0.81838368    -0.16100
C1176       C  0.66819408  0.33212368  0.86638925     0.46600
H1177       H  0.66893555  0.32992469  0.85101388    -0.02400
C1178       C  0.66618170  0.33777768  0.90243275     0.46700
H1179       H  0.66535639  0.34013692  0.91783103    -0.02400
C1180       C  0.64763993  0.35351905  0.87314089    -0.16100
C1181       C  0.64763799  0.29309423  0.87652046    -0.15800
C1182       C  0.70811946  0.35404943  0.87553878    -0.16200
C1183       C  0.64649264  0.35559463  0.89213804    -0.16200
C1184       C  0.64698987  0.29673848  0.89551780    -0.15800
C1185       C  0.70632193  0.35688757  0.89453803    -0.16100
C1186       C  0.83032291  0.16495142  0.12286160     0.46600
H1187       H  0.82901794  0.16439342  0.10748553    -0.02400
C1188       C  0.83196032  0.16669645  0.15900749     0.46700
H1189       H  0.83287824  0.16750751  0.17445428    -0.02400
C1190       C  0.79077003  0.14336114  0.13161291    -0.16100
C1191       C  0.85208781  0.14661772  0.13112741    -0.15800
C1192       C  0.84908176  0.20549308  0.13087863    -0.16200
C1193       C  0.79125412  0.14457119  0.15073693    -0.16200
C1194       C  0.85320838  0.14772709  0.15027881    -0.15800
C1195       C  0.85054646  0.20659291  0.14994684    -0.16100
C1196       C  0.00169059  0.50011900  0.19899912     0.46600
H1197       H  0.00128001  0.50092114  0.18356129    -0.02400
C1198       C  0.00206004  0.49774413  0.23509073     0.46700
H1199       H  0.00309035  0.49766876  0.25048360    -0.02400
C1200       C  0.97504462  0.01767823  0.20613516    -0.16100
C1201       C  0.98105172  0.45907057  0.20708880    -0.15800
C1202       C  0.53837311  0.02244208  0.20646981    -0.16200
C1203       C  0.97482841  0.01711730  0.22516445    -0.16200
C1204       C  0.98156285  0.45818192  0.22618754    -0.15800
C1205       C  0.53790108  0.02112976  0.22556261    -0.16100
Zn1206     Zn  0.77949604  0.13893395  0.35246196     1.49700
Zn1207     Zn  0.85900422  0.13886525  0.35092668     1.49400
Zn1208     Zn  0.83516725  0.17319689  0.31804430     1.49100
Zn1209     Zn  0.86035385  0.21778727  0.35562419     1.49500
O1210       O  0.83314810  0.16695305  0.34457217    -1.83000
O1211       O  0.76979261  0.09302659  0.36816946    -0.73600
O1212       O  0.87404900  0.12014209  0.32818858    -0.73400
O1213       O  0.78428652  0.15322902  0.30692172    -0.72900
O1214       O  0.82528555  0.09456318  0.36686087    -0.73600
O1215       O  0.74382778  0.12162899  0.32982633    -0.73200
O1216       O  0.85896393  0.14742464  0.30560157    -0.73800
O1217       O  0.88370855  0.26029502  0.33654477    -0.73200
O1218       O  0.90523835  0.17034658  0.36684960    -0.73900
O1219       O  0.86642785  0.22625691  0.31051706    -0.73300
O1220       O  0.90204682  0.22271014  0.37219066    -0.73800
O1221       O  0.82518917  0.22586724  0.37161515    -0.73700
O1222       O  0.76833931  0.17323483  0.36907024    -0.73500
C1223       C  0.79140322  0.08000597  0.37286612     0.78300
C1224       C  0.87285909  0.12734308  0.31106141     0.78800
C1225       C  0.75068507  0.13172969  0.31279280     0.77700
C1226       C  0.88388260  0.25797887  0.31890373     0.78100
C1227       C  0.91713753  0.20225370  0.37503388     0.79300
C1228       C  0.79006496  0.20657181  0.37575563     0.78300
Zn1229     Zn  0.97692933  0.44809606  0.00295079     1.49700
Zn1230     Zn  0.99195274  0.99548551  0.03868538     1.49400
Zn1231     Zn  0.55087141  0.02383525  0.00553046     1.49100
Zn1232     Zn  0.97437330  0.02572132  0.00183176     1.49500
O1233       O  0.99757351  0.99716432  0.01194638    -1.83000
O1234       O  0.95841599  0.40981007  0.02381522    -0.73600
O1235       O  0.54200298  0.02484435  0.05118518    -0.73400
O1236       O  0.56745987  0.49381589  0.98935890    -0.72900
O1237       O  0.97142084  0.44652699  0.04889866    -0.73600
O1238       O  0.51239403  0.43942271  0.98684712    -0.73200
O1239       O  0.58438265  0.04021986  0.02850481    -0.73800
O1240       O  0.51178211  0.07180184  0.98672836    -0.73200
O1241       O  0.96297620  0.01974981  0.04732254    -0.73900
O1242       O  0.56519581  0.06947848  0.98923835    -0.73300
O1243       O  0.95391468  0.04574305  0.02215028    -0.73800
O1244       O  0.93015093  0.49086177  0.98713919    -0.73700
O1245       O  0.93293412  0.43740205  0.98677136    -0.73500
C1246       C  0.95736880  0.41383232  0.04132475     0.78300
C1247       C  0.57617075  0.03937118  0.04566555     0.78800
C1248       C  0.54734524  0.46036675  0.98272004     0.77700
C1249       C  0.54676888  0.08473023  0.98284912     0.78100
C1250       C  0.95074259  0.03961725  0.03961075     0.79300
C1251       C  0.91782684  0.45672241  0.98159254     0.78300
C1252       C  0.68163816  0.10729898  0.27207987     0.17100
C1253       C  0.66357280  0.10654184  0.25534484    -0.31900
C1254       C  0.62789317  0.07439651  0.25177733     0.21500
C1255       C  0.61143787  0.04416839  0.26416383     0.03700
C1256       C  0.62932981  0.04502624  0.28092447    -0.21700
C1257       C  0.66456811  0.07745438  0.28468368     0.12900
S1258       S  0.72514421  0.14334935  0.27887219    -0.05300
C1259       C  0.71982668  0.11835267  0.29910097    -0.08800
C1260       C  0.68616713  0.08382055  0.30035783    -0.25400
S1261       S  0.56795761  0.00816192  0.25759643    -0.02600
C1262       C  0.57115725  0.03436325  0.23811052    -0.16000
C1263       C  0.60483079  0.06905323  0.23679244    -0.14000
H1264       H  0.67659010  0.13008409  0.24562978     0.21300
H1265       H  0.61610918  0.02163826  0.29071443     0.17400
H1266       H  0.67849688  0.06398151  0.31181469     0.19900
H1267       H  0.61145773  0.09017032  0.22612770     0.13200
C1268       C  0.94926973  0.36662456  0.25472534     0.17100
C1269       C  0.94122124  0.33143733  0.26209720    -0.31900
C1270       C  0.92825785  0.32369391  0.28053605     0.21500
C1271       C  0.92415892  0.34986447  0.29130864     0.03700
C1272       C  0.93205055  0.38481792  0.28389978    -0.21700
C1273       C  0.94421694  0.39216385  0.26540900     0.12900
S1274       S  0.96591610  0.38249317  0.23279373    -0.05300
C1275       C  0.96523198  0.42371121  0.23810579    -0.08800
C1276       C  0.95283462  0.42434003  0.25594811    -0.25400
S1277       S  0.90684887  0.33460421  0.31316154    -0.02600
C1278       C  0.90390708  0.29205704  0.30744705    -0.16000
C1279       C  0.91667520  0.29040249  0.28978679    -0.14000
H1280       H  0.94443867  0.31087587  0.25381024     0.21300
H1281       H  0.92834532  0.40520292  0.29208597     0.17400
H1282       H  0.43749734  0.44046887  0.25815065     0.19900
H1283       H  0.91597167  0.26549680  0.28377913     0.13200
C1284       C  0.92127914  0.03833413  0.26242104     0.17100
C1285       C  0.90372343  0.03904490  0.27897321    -0.31900
C1286       C  0.90133104  0.07159890  0.28262219     0.21500
C1287       C  0.91469293  0.10158724  0.27006010     0.03700
C1288       C  0.93247130  0.10093163  0.25351270    -0.21700
C1289       C  0.93589211  0.06878990  0.25013762     0.12900
S1290       S  0.92898476  0.00250204  0.25620766    -0.05300
C1291       C  0.95354524  0.02925100  0.23723075    -0.08800
C1292       C  0.95464374  0.06381015  0.23558794    -0.25400
S1293       S  0.90802588  0.13801218  0.27681730    -0.02600
C1294       C  0.88813197  0.11293406  0.29696005    -0.16000
C1295       C  0.88646049  0.07818062  0.29826928    -0.14000
H1296       H  0.89316635  0.01562301  0.28876077     0.21300
H1297       H  0.94374152  0.12467278  0.24389593     0.17400
H1298       H  0.47170771  0.08513340  0.22591532     0.19900
H1299       H  0.87437408  0.05858231  0.30982977     0.13200
C1300       C  0.88319875  0.29835002  0.10291618     0.17100
C1301       C  0.89358597  0.33485392  0.09642032    -0.31900
C1302       C  0.91102795  0.34532617  0.07891615     0.21500
C1303       C  0.91708768  0.32036912  0.06817585     0.03700
C1304       C  0.90696301  0.28406947  0.07475101    -0.21700
C1305       C  0.89027976  0.27394382  0.09238630     0.12900
S1306       S  0.86205561  0.27997705  0.12379885    -0.05300
C1307       C  0.86415376  0.23944518  0.11857415    -0.08800
C1308       C  0.87955170  0.24040935  0.10128261    -0.25400
S1309       S  0.93813490  0.33819713  0.04721737    -0.02600
C1310       C  0.93970879  0.38006109  0.05322258    -0.16000
C1311       C  0.92431210  0.37985809  0.07044232    -0.14000
H1312       H  0.88867793  0.35433698  0.10469972     0.21300
H1313       H  0.91219311  0.26468942  0.06656427     0.17400
H1314       H  0.88347980  0.21815438  0.09547706     0.19900
H1315       H  0.92297903  0.40373153  0.07642086     0.13200
C1316       C  0.64483561  0.08113667  0.08673544     0.18300
C1317       C  0.66317824  0.09803274  0.10350294    -0.31900
C1318       C  0.69937948  0.10278396  0.10646110     0.21500
C1319       C  0.71612689  0.09042744  0.09352003     0.03700
C1320       C  0.69801286  0.07394118  0.07665350    -0.21700
C1321       C  0.66224476  0.07007870  0.07348043     0.12900
S1322       S  0.60079871  0.07271610  0.08057673    -0.05300
C1323       C  0.60641964  0.05520401  0.05969888    -0.08800
C1324       C  0.64050986  0.05562716  0.05777068    -0.25400
S1325       S  0.76038687  0.09953363  0.09951642    -0.02600
C1326       C  0.75703437  0.12146027  0.11946484    -0.16000
C1327       C  0.72281521  0.12094911  0.12127453    -0.14000
H1328       H  0.65003261  0.10751142  0.11368241     0.21300
H1329       H  0.71149567  0.06513907  0.06633180     0.17400
H1330       H  0.64852541  0.04514469  0.04572795     0.19900
H1331       H  0.71610631  0.13528193  0.13197443     0.13200
C1332       C  0.91174951  0.09399029  0.06674664     0.17100
C1333       C  0.90119973  0.11991889  0.07323173    -0.31900
C1334       C  0.88945474  0.11659718  0.09180183     0.21500
C1335       C  0.88774252  0.08858259  0.10338434     0.03700
C1336       C  0.89857950  0.06279421  0.09697962    -0.21700
C1337       C  0.91074551  0.06635913  0.07845919     0.12900
S1338       S  0.92743795  0.09353253  0.04473721    -0.05300
C1339       C  0.93339860  0.05617955  0.05153987    -0.08800
C1340       C  0.92322268  0.04466180  0.06981638    -0.25400
S1341       S  0.87131000  0.08882452  0.12518616    -0.02600
C1342       C  0.86794023  0.12816595  0.11889095    -0.16000
C1343       C  0.87823918  0.13915644  0.10056260    -0.14000
H1344       H  0.90223704  0.14182488  0.06423481     0.21300
H1345       H  0.89765695  0.04099950  0.10601730     0.17400
H1346       H  0.92541270  0.02193040  0.07652718     0.19900
H1347       H  0.87743883  0.16223392  0.09365618     0.13200
C1348       C  0.92076495  0.11725392  0.17075836     0.17100
C1349       C  0.95157003  0.11136555  0.17376420    -0.31900
C1350       C  0.94397158  0.07677047  0.18190607     0.21500
C1351       C  0.90731660  0.04939374  0.18701708     0.03700
C1352       C  0.87651452  0.05536781  0.18412330    -0.21700
C1353       C  0.88407839  0.08985849  0.17584961     0.12900
S1354       S  0.92372172  0.15585970  0.15961452    -0.05300
C1355       C  0.87491646  0.13445874  0.16141457    -0.08800
C1356       C  0.85764583  0.09989734  0.17077444    -0.25400
S1357       S  0.90432680  0.01023532  0.19756705    -0.02600
C1358       C  0.95308312  0.03117977  0.19530635    -0.16000
C1359       C  0.97031136  0.06626434  0.18644295    -0.14000
H1360       H  0.98018383  0.13265985  0.16972319     0.21300
H1361       H  0.84786111  0.03395189  0.18804491     0.17400
H1362       H  0.82716448  0.08176704  0.17243344     0.19900
H1363       H  0.00076778  0.08429984  0.18464834     0.13200
C1364       C  0.69650787  0.07880818  0.17525748     0.17100
C1365       C  0.66287479  0.04743227  0.18199615    -0.31900
C1366       C  0.63208315  0.05288057  0.18601278     0.21500
C1367       C  0.63444927  0.08786694  0.18318564     0.03700
C1368       C  0.66843988  0.11950953  0.17697497    -0.21700
C1369       C  0.69943751  0.11422815  0.17326396     0.12900
S1370       S  0.73578006  0.07727376  0.16785876    -0.05300
C1371       C  0.75643651  0.12489679  0.16224322    -0.08800
C1372       C  0.73427892  0.14109077  0.16636368    -0.25400
S1373       S  0.59371561  0.08844679  0.18858048    -0.02600
C1374       C  0.57396440  0.04161506  0.19554571    -0.16000
C1375       C  0.59746098  0.02627418  0.19324285    -0.14000
H1376       H  0.66063463  0.01984742  0.18380751     0.21300
H1377       H  0.67054496  0.14699271  0.17497774     0.17400
H1378       H  0.74208716  0.17019202  0.16302557     0.19900
H1379       H  0.59010673  0.99768432  0.19737994     0.13200
C1380       C  0.92135355  0.30561186  0.16941401     0.17100
C1381       C  0.95348843  0.34152075  0.17300405    -0.31900
C1382       C  0.94759313  0.36954333  0.18132209     0.21500
C1383       C  0.91125949  0.36209331  0.18577362     0.03700
C1384       C  0.87919387  0.32626833  0.18215020    -0.21700
C1385       C  0.88508839  0.29816148  0.17401486     0.12900
S1386       S  0.92224992  0.26838938  0.15868739    -0.05300
C1387       C  0.87329732  0.24256867  0.16043891    -0.08800
C1388       C  0.85738044  0.26180572  0.16910200    -0.25400
S1389       S  0.91004173  0.39874858  0.19686576    -0.02600
C1390       C  0.95898018  0.42428522  0.19574742    -0.16000
C1391       C  0.97521678  0.40550896  0.18687258    -0.14000
H1392       H  0.98183543  0.34729564  0.16953789     0.21300
H1393       H  0.85087041  0.32042178  0.18571958     0.17400
H1394       H  0.82707757  0.25065190  0.17062062     0.19900
H1395       H  0.50527435  0.41586721  0.18622330     0.13200
C1396       C  0.78471891  0.41334585  0.92996552     0.17100
C1397       C  0.80852972  0.43867554  0.94366584    -0.31900
C1398       C  0.83709127  0.43266988  0.95083661     0.21500
C1399       C  0.84169575  0.40275019  0.94467006     0.03700
C1400       C  0.81831440  0.37782553  0.93073451    -0.21700
C1401       C  0.78980317  0.38386485  0.92354387     0.12900
S1402       S  0.74726405  0.41466648  0.92021844    -0.05300
C1403       C  0.73898319  0.37565117  0.90715638    -0.08800
C1404       C  0.76363259  0.36215166  0.91029164    -0.25400
S1405       S  0.87721264  0.39956719  0.95549687    -0.02600
C1406       C  0.88626515  0.43926232  0.96830267    -0.16000
C1407       C  0.86285949  0.45398850  0.96433085    -0.14000
H1408       H  0.80466544  0.46173857  0.94867386     0.21300
H1409       H  0.82191007  0.35451197  0.92586608     0.17400
H1410       H  0.76190191  0.33740652  0.90352501     0.19900
H1411       H  0.86456665  0.47883590  0.97097069     0.13200
C1412       C  0.59441591  0.22145927  0.93289195     0.17100
C1413       C  0.56951183  0.19797993  0.94674283    -0.31900
C1414       C  0.57489299  0.16876799  0.95366016     0.21500
C1415       C  0.60428094  0.16359495  0.94738713     0.03700
C1416       C  0.62912064  0.18697732  0.93342442    -0.21700
C1417       C  0.62320794  0.21571347  0.92620539     0.12900
S1418       S  0.59242945  0.25839422  0.92277074    -0.05300
C1419       C  0.62984986  0.26525956  0.90895408    -0.08800
C1420       C  0.64367737  0.24083918  0.91231942    -0.25400
S1421       S  0.60599349  0.12658201  0.95771281    -0.02600
C1422       C  0.56615325  0.11752394  0.97025636    -0.16000
C1423       C  0.55275495  0.14224988  0.96667423    -0.14000
H1424       H  0.54669800  0.20207978  0.95178736     0.21300
H1425       H  0.65176540  0.18270834  0.92828488     0.17400
H1426       H  0.66754012  0.24175561  0.90512411     0.19900
H1427       H  0.52795256  0.14071298  0.97315093     0.13200
C1428       C  0.58562842  0.38362726  0.92099201     0.17100
C1429       C  0.55659999  0.38426343  0.93122014    -0.31900
C1430       C  0.56757798  0.41164144  0.94542417     0.21500
C1431       C  0.60561050  0.43771835  0.94897168     0.03700
C1432       C  0.63448156  0.43719214  0.93872544    -0.21700
C1433       C  0.62358947  0.40940664  0.92486610     0.12900
S1434       S  0.57878925  0.35104588  0.90408651    -0.05300
C1435       C  0.62751727  0.37226938  0.90268074    -0.08800
C1436       C  0.64769216  0.40294364  0.91440589    -0.25400
S1437       S  0.61332914  0.46900235  0.96653987    -0.02600
C1438       C  0.56480518  0.44642131  0.96940922    -0.16000
C1439       C  0.54389566  0.41636085  0.95725540    -0.14000
H1440       H  0.52690452  0.36386779  0.92851187     0.21300
H1441       H  0.66420055  0.45710510  0.94167601     0.17400
H1442       H  0.67838224  0.41892155  0.91558752     0.19900
H1443       H  0.51310085  0.39947279  0.95685243     0.13200
C1444       C  0.58002911  0.44745472  0.84592166     0.17100
C1445       C  0.60783758  0.44624308  0.85688903    -0.31900
C1446       C  0.61285237  0.41462158  0.85482171     0.21500
C1447       C  0.59112867  0.38520482  0.84251101     0.03700
C1448       C  0.56347699  0.38658215  0.83136929    -0.21700
C1449       C  0.55841488  0.41828483  0.83344905     0.12900
S1450       S  0.57072741  0.48420098  0.84583922    -0.05300
C1451       C  0.53831015  0.46072869  0.82835718    -0.08800
C1452       C  0.53383472  0.42542255  0.82358025    -0.25400
S1453       S  0.59977323  0.34789557  0.84340603    -0.02600
C1454       C  0.63219874  0.37193090  0.86087419    -0.16000
C1455       C  0.63712923  0.40767391  0.86492544    -0.14000
H1456       H  0.62474383  0.46889294  0.86668950     0.21300
H1457       H  0.54641751  0.36382279  0.82165308     0.17400
H1458       H  0.51521099  0.40707555  0.81265841     0.19900
H1459       H  0.65593560  0.42671239  0.87560103     0.13200
C1460       C  0.61718667  0.20144669  0.84797072     0.17100
C1461       C  0.61473016  0.17338853  0.83565893    -0.31900
C1462       C  0.58322627  0.13636382  0.83733196     0.21500
C1463       C  0.55536260  0.12752619  0.85065685     0.03700
C1464       C  0.55811586  0.15546390  0.86315071    -0.21700
C1465       C  0.58952868  0.19253935  0.86140645     0.12900
S1466       S  0.65276439  0.24825704  0.84804364    -0.05300
C1467       C  0.63065798  0.25579056  0.86666088    -0.08800
C1468       C  0.59687284  0.22363401  0.87201835    -0.25400
S1469       S  0.51786006  0.08169644  0.84935850    -0.02600
C1470       C  0.53932938  0.07479906  0.83027126    -0.16000
C1471       C  0.57471512  0.10589883  0.82596571    -0.14000
H1472       H  0.63606240  0.18026661  0.82501273     0.21300
H1473       H  0.53634771  0.14880311  0.87353152     0.17400
H1474       H  0.57847151  0.22289007  0.88308565     0.19900
H1475       H  0.59228515  0.10689574  0.81440813     0.13200
C1476       C  0.87246524  0.44286781  0.84866108     0.17100
C1477       C  0.84495083  0.44114443  0.86098450    -0.31900
C1478       C  0.80765159  0.41033373  0.85921101     0.21500
C1479       C  0.79802897  0.38199060  0.84599170     0.03700
C1480       C  0.82566762  0.38356947  0.83367586    -0.21700
C1481       C  0.86301461  0.41473628  0.83530990     0.12900
S1482       S  0.91860999  0.47949534  0.84773051    -0.05300
C1483       C  0.92505968  0.45763895  0.82866718    -0.08800
C1484       C  0.89340670  0.42264081  0.82404995    -0.25400
S1485       S  0.75101961  0.34678635  0.84650639    -0.02600
C1486       C  0.74452923  0.37025845  0.86494710    -0.16000
C1487       C  0.77711280  0.40421865  0.86978145    -0.14000
H1488       H  0.85216244  0.46323292  0.87133241     0.21300
H1489       H  0.81830187  0.36180663  0.82313311     0.17400
H1490       H  0.89212984  0.40497685  0.81242458     0.19900
H1491       H  0.77869799  0.42358189  0.88058912     0.13200
C1492       C  0.87065805  0.45170306  0.76978052     0.17100
C1493       C  0.83494475  0.44354314  0.76315972    -0.31900
C1494       C  0.82399740  0.42667795  0.74550267     0.21500
C1495       C  0.84801679  0.41957072  0.73464422     0.03700
C1496       C  0.88353669  0.42754236  0.74131563    -0.21700
C1497       C  0.89382919  0.44307715  0.75919982     0.12900
S1498       S  0.88928722  0.47148363  0.79092803    -0.05300
C1499       C  0.92763925  0.46570728  0.78586850    -0.08800
C1500       C  0.92630764  0.45095183  0.76833377    -0.25400
S1501       S  0.82964725  0.39905605  0.71361816    -0.02600
C1502       C  0.78858175  0.39855263  0.71987143    -0.16000
C1503       C  0.78957011  0.41431640  0.73711470    -0.14000
H1504       H  0.81623383  0.44931024  0.77153161     0.21300
H1505       H  0.90198557  0.42113319  0.73310031     0.17400
H1506       H  0.94770914  0.44582812  0.76248291     0.19900
H1507       H  0.76617725  0.41613518  0.74324476     0.13200
C1508       C  0.55355743  0.13366332  0.77153110     0.17100
C1509       C  0.56234855  0.16954443  0.76473206    -0.31900
C1510       C  0.58113038  0.18088285  0.74757160     0.21500
C1511       C  0.59005365  0.15726466  0.73741856     0.03700
C1512       C  0.58185385  0.12167457  0.74437405    -0.21700
C1513       C  0.56375611  0.11068801  0.76170339     0.12900
S1514       S  0.52986433  0.11412208  0.79178592    -0.05300
C1515       C  0.53537865  0.07529671  0.78739579    -0.08800
C1516       C  0.55358828  0.07730866  0.77078018    -0.25400
S1517       S  0.61157426  0.17571374  0.71658714    -0.02600
C1518       C  0.60967372  0.21616504  0.72193909    -0.16000
C1519       C  0.59276154  0.21497363  0.73883819    -0.14000
H1520       H  0.55488444  0.18781327  0.77246897     0.21300
H1521       H  0.58924023  0.10335360  0.73662698     0.17400
H1522       H  0.55897975  0.05535494  0.76556853     0.19900
H1523       H  0.58903993  0.23777849  0.74437039     0.13200
C1524       C  0.58532139  0.45397044  0.77003772     0.17100
C1525       C  0.61291752  0.44598559  0.76324213    -0.31900
C1526       C  0.60560568  0.42698521  0.74606276     0.21500
C1527       C  0.57289969  0.41735254  0.73593296     0.03700
C1528       C  0.54529740  0.42490780  0.74283340    -0.21700
C1529       C  0.55214217  0.44293879  0.76013361     0.12900
S1530       S  0.58802773  0.47649090  0.79057105    -0.05300
C1531       C  0.54291454  0.46879630  0.78609713    -0.08800
C1532       C  0.52789556  0.45128238  0.76924957    -0.25400
S1533       S  0.56924046  0.39508817  0.71530079    -0.02600
C1534       C  0.61160957  0.39760235  0.72058027    -0.16000
C1535       C  0.62787870  0.41522380  0.73735651    -0.14000
H1536       H  0.63860584  0.45378461  0.77105695     0.21300
H1537       H  0.51936389  0.41666868  0.73514738     0.17400
H1538       H  0.50037080  0.44423207  0.76398645     0.19900
H1539       H  0.65436034  0.41898172  0.74287170     0.13200
C1540       C  0.70048828  0.25089840  0.42760421     0.17100
C1541       C  0.69853191  0.22477403  0.41417112    -0.31900
C1542       C  0.73294698  0.23064068  0.40667660     0.21500
C1543       C  0.76761719  0.26125050  0.41228948     0.03700
C1544       C  0.76959518  0.28693482  0.42589653    -0.21700
C1545       C  0.73531442  0.28097187  0.43344275     0.12900
S1546       S  0.66209400  0.25001450  0.43773902    -0.05300
C1547       C  0.69344592  0.28992371  0.45021166    -0.08800
C1548       C  0.73145085  0.30334278  0.44655533    -0.25400
S1549       S  0.80608970  0.26434593  0.40128522    -0.02600
C1550       C  0.77539115  0.22362895  0.38908358    -0.16000
C1551       C  0.73722435  0.20865528  0.39338791    -0.14000
H1552       H  0.67141129  0.20120372  0.40962927     0.21300
H1553       H  0.79669411  0.31074854  0.43029368     0.17400
H1554       H  0.75483462  0.32860647  0.45282643     0.19900
H1555       H  0.71399220  0.18325713  0.38713171     0.13200
C1556       C  0.53429900  0.28334688  0.43555126     0.17100
C1557       C  0.50547612  0.28277726  0.42467119    -0.31900
C1558       C  0.98720899  0.25208571  0.41182527     0.21500
C1559       C  0.99674357  0.22384250  0.40988477     0.03700
C1560       C  0.52588889  0.22561896  0.42052664    -0.21700
C1561       C  0.54430633  0.25547393  0.43338395     0.12900
S1562       S  0.56151506  0.31824761  0.45125892    -0.05300
C1563       C  0.58674263  0.29515695  0.45463411    -0.08800
C1564       C  0.57448215  0.26219551  0.44433339    -0.25400
S1565       S  0.97149247  0.19060038  0.39316297    -0.02600
C1566       C  0.94817387  0.21534247  0.38862798    -0.16000
C1567       C  0.95944270  0.24741285  0.39962484    -0.14000
H1568       H  0.49793669  0.30478168  0.42606865     0.21300
H1569       H  0.53400922  0.20409213  0.41884089     0.17400
H1570       H  0.58781413  0.24485324  0.44440958     0.19900
H1571       H  0.94764062  0.26612183  0.39887146     0.13200
C1572       C  0.77258891  0.00412501  0.40955073     0.17100
C1573       C  0.77425474  0.48371167  0.42567179    -0.31900
C1574       C  0.73961730  0.45427372  0.43252943     0.21500
C1575       C  0.70501578  0.44717731  0.42523699     0.03700
C1576       C  0.70349831  0.46992223  0.41103342    -0.21700
C1577       C  0.73765982  0.00042815  0.40511077     0.12900
S1578       S  0.80988824  0.03850854  0.39727271    -0.05300
C1579       C  0.77821370  0.04847640  0.38623292    -0.08800
C1580       C  0.74072021  0.02606469  0.39182693    -0.25400
S1581       S  0.66622277  0.40891378  0.43473121    -0.02600
C1582       C  0.69692756  0.40305783  0.44891592    -0.16000
C1583       C  0.73511952  0.42909380  0.44630633    -0.14000
H1584       H  0.80122827  0.48889586  0.43122134     0.21300
H1585       H  0.67670292  0.96965037  0.41000553     0.17400
H1586       H  0.71706647  0.02843485  0.38650352     0.19900
H1587       H  0.75818712  0.42902090  0.45381216     0.13200
C1588       C  0.76903379  0.26333583  0.61958345     0.17100
C1589       C  0.79797608  0.26168207  0.60994944    -0.31900
C1590       C  0.78712675  0.23393567  0.59606274     0.21500
C1591       C  0.74916488  0.20881789  0.59184739     0.03700
C1592       C  0.72009899  0.20996477  0.60177236    -0.21700
C1593       C  0.73099350  0.23779807  0.61572570     0.12900
S1594       S  0.77661931  0.29656496  0.63610099    -0.05300
C1595       C  0.72802014  0.27570899  0.63797518    -0.08800
C1596       C  0.70718173  0.24445808  0.62648533    -0.25400
S1597       S  0.74227257  0.17786548  0.57410184    -0.02600
C1598       C  0.79098610  0.19909589  0.57263428    -0.16000
C1599       C  0.81122261  0.22816642  0.58519479    -0.14000
H1600       H  0.82768452  0.28152592  0.61295915     0.21300
H1601       H  0.69040064  0.19041149  0.59861312     0.17400
H1602       H  0.67639658  0.22845896  0.62557036     0.19900
H1603       H  0.84195620  0.24417813  0.58628401     0.13200
C1604       C  0.50207533  0.23218953  0.61373498     0.17100
C1605       C  0.97695225  0.20533254  0.60023480    -0.31900
C1606       C  0.95288013  0.21505984  0.59077492     0.21500
C1607       C  0.95354831  0.24906111  0.59437652     0.03700
C1608       C  0.97879059  0.27515871  0.60750939    -0.21700
C1609       C  0.50374671  0.26692595  0.61639655     0.12900
S1610       S  0.53288926  0.22578762  0.62723245    -0.05300
C1611       C  0.54852433  0.27052768  0.63649944    -0.08800
C1612       C  0.53037098  0.28909763  0.62947946    -0.25400
S1613       S  0.92077130  0.25468747  0.58209866    -0.02600
C1614       C  0.90667005  0.21121038  0.57178186    -0.16000
C1615       C  0.92597178  0.19318606  0.57775450    -0.14000
H1616       H  0.97617639  0.17865397  0.59748854     0.21300
H1617       H  0.97939443  0.30172742  0.61034315     0.17400
H1618       H  0.53683455  0.31755583  0.63344851     0.19900
H1619       H  0.91975978  0.16510185  0.57323372     0.13200
C1620       C  0.72963086  0.48984067  0.60844000     0.17100
C1621       C  0.72495834  0.01048076  0.59243604    -0.31900
C1622       C  0.75964577  0.04185939  0.58679834     0.21500
C1623       C  0.79357716  0.05122942  0.59569655     0.03700
C1624       C  0.79449814  0.02911783  0.61036287    -0.21700
C1625       C  0.76402636  0.49866710  0.61663464     0.12900
S1626       S  0.69081022  0.45210278  0.61827631    -0.05300
C1627       C  0.72123678  0.44767958  0.63338312    -0.08800
C1628       C  0.75944017  0.47423214  0.63085675    -0.25400
S1629       S  0.83226716  0.09164397  0.58769373    -0.02600
C1630       C  0.80263146  0.09551520  0.57195005    -0.16000
C1631       C  0.76474383  0.06719455  0.57296565    -0.14000
H1632       H  0.69841620  0.00356148  0.58568465     0.21300
H1633       H  0.82096002  0.03640266  0.61730689     0.17400
H1634       H  0.78250071  0.47576843  0.63908191     0.19900
H1635       H  0.74217311  0.06599778  0.56445887     0.13200
C1636       C  0.74936766  0.21562771  0.51152495     0.17100
C1637       C  0.72374151  0.21784073  0.49919244    -0.31900
C1638       C  0.72073995  0.25093673  0.49975412     0.21500
C1639       C  0.74205694  0.28044850  0.51209459     0.03700
C1640       C  0.76740716  0.27809293  0.52453269    -0.21700
C1641       C  0.77056250  0.24511243  0.52390818     0.12900
S1642       S  0.75768485  0.17818259  0.51295892    -0.05300
C1643       C  0.78967671  0.20229489  0.53058528    -0.08800
C1644       C  0.79371866  0.23764940  0.53482598    -0.25400
S1645       S  0.73483505  0.31848649  0.51026805    -0.02600
C1646       C  0.70321927  0.29474620  0.49245736    -0.16000
C1647       C  0.69815923  0.25880455  0.48860385    -0.14000
H1648       H  0.70711111  0.19492805  0.48947004     0.21300
H1649       H  0.78416429  0.30109183  0.53419226     0.17400
H1650       H  0.81253823  0.25685256  0.54545336     0.19900
H1651       H  0.67908427  0.23939564  0.47812853     0.13200
C1652       C  0.74888188  0.46529725  0.51030595     0.17100
C1653       C  0.77817212  0.99493499  0.52284808    -0.31900
C1654       C  0.78183724  0.03134050  0.52201801     0.21500
C1655       C  0.76114582  0.03946474  0.50938666     0.03700
C1656       C  0.73560754  0.01135627  0.49703411    -0.21700
C1657       C  0.72878302  0.47416533  0.49766227     0.12900
S1658       S  0.73901465  0.41895949  0.50908833    -0.05300
C1659       C  0.70791841  0.41147946  0.49112924    -0.08800
C1660       C  0.70509453  0.44339848  0.48672797    -0.25400
S1661       S  0.76849786  0.08484861  0.51109641    -0.02600
C1662       C  0.79899536  0.09278930  0.52938631    -0.16000
C1663       C  0.80391185  0.06195096  0.53338412    -0.14000
H1664       H  0.79421838  0.98864426  0.53281955     0.21300
H1665       H  0.71911023  0.01747414  0.48726347     0.17400
H1666       H  0.68662115  0.44413171  0.47609933     0.19900
H1667       H  0.82197471  0.06157035  0.54434296     0.13200
C1668       C  0.53635034  0.28705774  0.51285131     0.17100
C1669       C  0.00622812  0.28567990  0.52388391    -0.31900
C1670       C  0.97035220  0.25217249  0.52354897     0.21500
C1671       C  0.96414698  0.22013533  0.51363650     0.03700
C1672       C  0.49549010  0.22075078  0.50340248    -0.21700
C1673       C  0.53087322  0.25467246  0.50352635     0.12900
S1674       S  0.58099494  0.32602508  0.51021123    -0.05300
C1675       C  0.59202025  0.29838772  0.49623492    -0.08800
C1676       C  0.56279473  0.26090596  0.49417770    -0.25400
S1677       S  0.91886609  0.18204784  0.51534292    -0.02600
C1678       C  0.90826479  0.20929067  0.52980269    -0.16000
C1679       C  0.93826595  0.24616824  0.53275760    -0.14000
H1680       H  0.01085972  0.31070250  0.53155896     0.21300
H1681       H  0.49142231  0.19564980  0.49599790     0.17400
H1682       H  0.56420413  0.23992565  0.48536445     0.19900
H1683       H  0.93698335  0.26706867  0.54166038     0.13200
C1684       C  0.83516638  0.66856394  0.56797205     0.46600
H1685       H  0.83595882  0.66875797  0.58344200    -0.02400
C1686       C  0.83330800  0.66784885  0.53176536     0.46700
H1687       H  0.83272482  0.66774939  0.51632020    -0.02400
C1688       C  0.87415813  0.69164846  0.55912096    -0.16100
C1689       C  0.81812758  0.62860430  0.55959373    -0.15800
C1690       C  0.81187150  0.68513973  0.55995703    -0.16200
C1691       C  0.87405322  0.69133601  0.54004429    -0.16200
C1692       C  0.81634505  0.62760554  0.54048580    -0.15800
C1693       C  0.81094750  0.68535092  0.54084722    -0.16100
C1694       C  0.66900550  0.83549876  0.49157641     0.46600
H1695       H  0.67039418  0.83708528  0.50700191    -0.02400
C1696       C  0.66521939  0.83138697  0.45539949     0.46700
H1697       H  0.66369625  0.82978533  0.43994608    -0.02400
C1698       C  0.68610260  0.81225640  0.48300792    -0.16100
C1699       C  0.62769530  0.81587728  0.48377457    -0.15800
C1700       C  0.69019232  0.87496982  0.48183789    -0.16200
C1701       C  0.68384729  0.81042576  0.46392241    -0.16200
C1702       C  0.62654215  0.81439386  0.46471273    -0.15800
C1703       C  0.68757258  0.87215824  0.46278601    -0.16100
Zn1704     Zn  0.64129631  0.78085086  0.67003591     1.49700
Zn1705     Zn  0.63665867  0.85730148  0.66878547     1.49400
Zn1706     Zn  0.66487539  0.83583097  0.70553097     1.49100
Zn1707     Zn  0.71806789  0.86229511  0.66967328     1.49500
O1708       O  0.66530256  0.83404039  0.67845162    -1.83000
O1709       O  0.59447381  0.76647905  0.65468748    -0.73600
O1710       O  0.61787042  0.87802250  0.68923726    -0.73400
O1711       O  0.63774566  0.78277988  0.71639767    -0.72900
O1712       O  0.59164028  0.81981162  0.65412792    -0.73600
O1713       O  0.62587873  0.74470243  0.69189694    -0.73200
O1714       O  0.63909214  0.86354494  0.71462323    -0.73800
O1715       O  0.75521939  0.88315253  0.69104648    -0.73200
O1716       O  0.66843347  0.89937522  0.65095021    -0.73900
O1717       O  0.71785115  0.86440440  0.71599086    -0.73300
O1718       O  0.72589060  0.90542334  0.65268466    -0.73800
O1719       O  0.73109179  0.82821398  0.65476863    -0.73700
O1720       O  0.67672236  0.77271623  0.65357835    -0.73500
C1721       C  0.57872744  0.78520418  0.64940856     0.78300
C1722       C  0.62168034  0.87846977  0.70682002     0.78800
C1723       C  0.62501372  0.74965285  0.70936128     0.77700
C1724       C  0.75072814  0.88152904  0.70860778     0.78100
C1725       C  0.70318401  0.91552306  0.64607918     0.79300
C1726       C  0.71151932  0.79387010  0.64909177     0.78300
C1727       C  0.50167272  0.50118718  0.79047607     0.46600
H1728       H  0.50196095  0.50235450  0.77507413    -0.02400
C1729       C  0.50062698  0.49858801  0.82658747     0.46700
H1730       H  0.50033928  0.49744820  0.84202868    -0.02400
C1731       C  0.95769607  0.98106237  0.79915379    -0.16100
C1732       C  0.51766118  0.98015872  0.79801972    -0.15800
C1733       C  0.52111507  0.54079797  0.79951751    -0.16200
C1734       C  0.95758715  0.97971822  0.81826167    -0.16200
C1735       C  0.51751145  0.97878960  0.81715871    -0.15800
C1736       C  0.52065914  0.53957741  0.81866943    -0.16100
C1737       C  0.66455150  0.83157089  0.86578629     0.46600
H1738       H  0.66559563  0.82949445  0.85041273    -0.02400
C1739       C  0.66184743  0.83680186  0.90184418     0.46700
H1740       H  0.66074862  0.83890676  0.91724014    -0.02400
C1741       C  0.64394755  0.85294057  0.87251856    -0.16100
C1742       C  0.64353746  0.79254493  0.87575134    -0.15800
C1743       C  0.70426402  0.85299803  0.87517528    -0.16200
C1744       C  0.64280048  0.85524968  0.89149444    -0.16200
C1745       C  0.64220167  0.79583424  0.89470823    -0.15800
C1746       C  0.70218352  0.85551428  0.89415688    -0.16100
C1747       C  0.83230988  0.66349161  0.12481089     0.46600
H1748       H  0.83008996  0.66149975  0.10949494    -0.02400
C1749       C  0.83528382  0.66541492  0.16092627     0.46700
H1750       H  0.83677118  0.66645297  0.17636490    -0.02400
C1751       C  0.79311731  0.64406351  0.13391176    -0.16100
C1752       C  0.85294717  0.64383344  0.13290386    -0.15800
C1753       C  0.85294356  0.70431860  0.13261039    -0.16200
C1754       C  0.79431555  0.64519679  0.15301720    -0.16200
C1755       C  0.85459040  0.64480551  0.15200425    -0.15800
C1756       C  0.85510658  0.70528683  0.15176619    -0.16100
C1757       C  0.99763392  0.00007114  0.19754464     0.46600
H1758       H  0.99769038  0.00001894  0.18209390    -0.02400
C1759       C  0.99700745  0.99974110  0.23367084     0.46700
H1760       H  0.99709183  0.00072035  0.24904985    -0.02400
C1761       C  0.98197281  0.51996884  0.20845016    -0.16100
C1762       C  0.97927062  0.95954410  0.20625267    -0.15800
C1763       C  0.54101943  0.51932777  0.20817121    -0.16200
C1764       C  0.98237856  0.51855391  0.22750837    -0.16200
C1765       C  0.97942451  0.95974558  0.22539555    -0.15800
C1766       C  0.53992660  0.51640164  0.22724108    -0.16100
Zn1767     Zn  0.78217542  0.63972741  0.35365566     1.49700
Zn1768     Zn  0.86196540  0.64093363  0.35226297     1.49400
Zn1769     Zn  0.83672090  0.67172701  0.31854458     1.49100
Zn1770     Zn  0.86181748  0.71969808  0.35525610     1.49500
O1771       O  0.83537971  0.66786306  0.34520193    -1.83000
O1772       O  0.77295053  0.59391022  0.36886191    -0.73600
O1773       O  0.87911479  0.62278696  0.33011856    -0.73400
O1774       O  0.78514499  0.64802076  0.30791784    -0.72900
O1775       O  0.82908199  0.59672607  0.36857599    -0.73600
O1776       O  0.74537412  0.62189748  0.33172387    -0.73200
O1777       O  0.86402132  0.64853030  0.30681728    -0.73800
O1778       O  0.87960006  0.76047977  0.33531077    -0.73200
O1779       O  0.90785939  0.67449863  0.36758097    -0.73900
O1780       O  0.86350750  0.72451844  0.30991929    -0.73300
O1781       O  0.90662500  0.72848915  0.37059262    -0.73800
O1782       O  0.82783780  0.72668440  0.37255666    -0.73700
O1783       O  0.77145896  0.67331356  0.37084627    -0.73500
C1784       C  0.79474771  0.58148448  0.37400972     0.78300
C1785       C  0.87899345  0.62981438  0.31288944     0.78800
C1786       C  0.75170957  0.62890621  0.31439791     0.77700
C1787       C  0.87869782  0.75692620  0.31770164     0.78100
C1788       C  0.92126809  0.70792310  0.37424097     0.79300
C1789       C  0.79322348  0.70669716  0.37743419     0.78300
Zn1790     Zn  0.97228973  0.94471194  0.00246070     1.49700
Zn1791     Zn  0.99990035  0.49962641  0.03921057     1.49400
Zn1792     Zn  0.55507229  0.52748751  0.00456107     1.49100
Zn1793     Zn  0.97518204  0.52667864  0.00298839     1.49500
O1794       O  0.00146692  0.50051069  0.01225324    -1.83000
O1795       O  0.95262748  0.90562668  0.02327874    -0.73600
O1796       O  0.55274150  0.52439420  0.05057326    -0.73400
O1797       O  0.56239441  0.98958889  0.99023746    -0.72900
O1798       O  0.96518112  0.94247124  0.04824137    -0.73600
O1799       O  0.50630172  0.93693802  0.98628520    -0.73200
O1800       O  0.59125587  0.54843395  0.02618729    -0.73800
O1801       O  0.51104300  0.57155994  0.98713328    -0.73200
O1802       O  0.97314869  0.52599374  0.04894595    -0.73900
O1803       O  0.56517486  0.57046805  0.98765873    -0.73300
O1804       O  0.95697852  0.54678996  0.02393648    -0.73800
O1805       O  0.93083443  0.99156624  0.98462409    -0.73700
O1806       O  0.92936952  0.93589352  0.98583723    -0.73500
C1807       C  0.95161223  0.90972019  0.04080912     0.78300
C1808       C  0.58592608  0.54361353  0.04363856     0.78800
C1809       C  0.54175994  0.95680196  0.98298415     0.77700
C1810       C  0.54537392  0.58467495  0.98199257     0.78100
C1811       C  0.95787956  0.54344604  0.04149793     0.79300
C1812       C  0.91676271  0.95679339  0.97964588     0.78300
C1813       C  0.68111727  0.60484904  0.27473799     0.17100
C1814       C  0.66240880  0.60452004  0.25833890    -0.31900
C1815       C  0.62778659  0.57149179  0.25435051     0.21500
C1816       C  0.61288642  0.54000059  0.26600813     0.03700
C1817       C  0.63133865  0.54049397  0.28251447    -0.21700
C1818       C  0.66557044  0.57378408  0.28669451     0.12900
S1819       S  0.72390523  0.64169338  0.28170740    -0.05300
C1820       C  0.72032646  0.61534770  0.30113887    -0.08800
C1821       C  0.68776010  0.57986380  0.30209260    -0.25400
S1822       S  0.57070230  0.50269994  0.25880618    -0.02600
C1823       C  0.57261978  0.53000544  0.24005386    -0.16000
C1824       C  0.60456548  0.56610731  0.23947600    -0.14000
H1825       H  0.67427253  0.62894172  0.24913020     0.21300
H1826       H  0.61941493  0.51609138  0.29173615     0.17400
H1827       H  0.68144007  0.55920851  0.31304262     0.19900
H1828       H  0.60995786  0.58752943  0.22907193     0.13200
C1829       C  0.94551572  0.86758434  0.25399326     0.17100
C1830       C  0.93540605  0.83148361  0.26089919    -0.31900
C1831       C  0.92060000  0.82277599  0.27898273     0.21500
C1832       C  0.91653296  0.84883302  0.28986186     0.03700
C1833       C  0.92641092  0.88474638  0.28288455    -0.21700
C1834       C  0.94066170  0.89319039  0.26472862     0.12900
S1835       S  0.96419101  0.88426644  0.23248403    -0.05300
C1836       C  0.96414432  0.92583029  0.23778349    -0.08800
C1837       C  0.95124272  0.92630474  0.25558077    -0.25400
S1838       S  0.89831707  0.83282274  0.31152892    -0.02600
C1839       C  0.89555743  0.79038511  0.30565592    -0.16000
C1840       C  0.90832023  0.78904979  0.28795783    -0.14000
H1841       H  0.93870977  0.81104830  0.25254873     0.21300
H1842       H  0.92293363  0.90514310  0.29118059     0.17400
H1843       H  0.45061106  0.94931242  0.26189556     0.19900
H1844       H  0.90838917  0.76452509  0.28195270     0.13200
C1845       C  0.93529131  0.54434163  0.26662509     0.17100
C1846       C  0.91876832  0.54587778  0.28337714    -0.31900
C1847       C  0.91425253  0.57740103  0.28632716     0.21500
C1848       C  0.92526676  0.60590889  0.27307297     0.03700
C1849       C  0.94242611  0.60462692  0.25639872    -0.21700
C1850       C  0.94727848  0.57315692  0.25353277     0.12900
S1851       S  0.94333102  0.50865507  0.26070364    -0.05300
C1852       C  0.96386628  0.53271748  0.24043944    -0.08800
C1853       C  0.96402979  0.56683007  0.23845922    -0.25400
S1854       S  0.91531476  0.64066316  0.27887637    -0.02600
C1855       C  0.89672876  0.61667776  0.29942843    -0.16000
C1856       C  0.89834981  0.58372592  0.30166189    -0.14000
H1857       H  0.90978578  0.52344749  0.29364380     0.21300
H1858       H  0.95138598  0.62700326  0.24611036     0.17400
H1859       H  0.46999524  0.58239638  0.22681703     0.19900
H1860       H  0.88737735  0.56486102  0.31354733     0.13200
C1861       C  0.88803320  0.79803920  0.10471358     0.17100
C1862       C  0.90125882  0.83544589  0.09866507    -0.31900
C1863       C  0.91221002  0.84363352  0.07998179     0.21500
C1864       C  0.90943897  0.81578555  0.06776952     0.03700
C1865       C  0.89625572  0.77845764  0.07386928    -0.21700
C1866       C  0.88608815  0.77050873  0.09263253     0.12900
S1867       S  0.87396383  0.78215078  0.12680848    -0.05300
C1868       C  0.86712917  0.73813793  0.12003596    -0.08800
C1869       C  0.87411595  0.73638470  0.10124567    -0.25400
S1870       S  0.92410399  0.83148378  0.04563423    -0.02600
C1871       C  0.93463093  0.87619056  0.05300460    -0.16000
C1872       C  0.92684492  0.87841503  0.07160234    -0.14000
H1873       H  0.90338433  0.85727921  0.10813256     0.21300
H1874       H  0.89452717  0.75669214  0.06447702     0.17400
H1875       H  0.87127223  0.71182446  0.09397522     0.19900
H1876       H  0.93177582  0.90419225  0.07864275     0.13200
C1877       C  0.67730499  0.59981194  0.07196110     0.18300
C1878       C  0.71289669  0.62690938  0.07902890    -0.31900
C1879       C  0.72330735  0.61966925  0.09644755     0.21500
C1880       C  0.69980147  0.58665204  0.10628425     0.03700
C1881       C  0.66380860  0.55991734  0.09940778    -0.21700
C1882       C  0.65307419  0.56749022  0.08212218     0.12900
S1883       S  0.65974889  0.60292726  0.05090254    -0.05300
C1884       C  0.61885429  0.56088324  0.05613626    -0.08800
C1885       C  0.61919623  0.54524442  0.07318617    -0.25400
S1886       S  0.71899609  0.58217241  0.12657420    -0.02600
C1887       C  0.75840030  0.62623847  0.12216274    -0.16000
C1888       C  0.75669413  0.64257047  0.10555173    -0.14000
H1889       H  0.73172571  0.65243222  0.07126305     0.21300
H1890       H  0.64509478  0.53429151  0.10712955     0.17400
H1891       H  0.59601734  0.51885253  0.07864732     0.19900
H1892       H  0.77890934  0.66979668  0.10031500     0.13200
C1893       C  0.91789969  0.59655401  0.06884096     0.17100
C1894       C  0.90687317  0.62205791  0.07544353    -0.31900
C1895       C  0.89307391  0.61698248  0.09369590     0.21500
C1896       C  0.88962541  0.58752289  0.10477558     0.03700
C1897       C  0.90105619  0.56227960  0.09827822    -0.21700
C1898       C  0.91555441  0.56777028  0.08016049     0.12900
S1899       S  0.93562759  0.59787179  0.04714341    -0.05300
C1900       C  0.94091336  0.55994534  0.05365167    -0.08800
C1901       C  0.92902624  0.54687281  0.07155938    -0.25400
S1902       S  0.87096481  0.58565296  0.12623471    -0.02600
C1903       C  0.86903688  0.62599803  0.12053089    -0.16000
C1904       C  0.88164187  0.63918245  0.10267853    -0.14000
H1905       H  0.90913337  0.64495332  0.06679042     0.21300
H1906       H  0.89894865  0.53951608  0.10698126     0.17400
H1907       H  0.93022200  0.52330693  0.07794361     0.19900
H1908       H  0.88287984  0.66396198  0.09648731     0.13200
C1909       C  0.92396046  0.61673473  0.17281599     0.17100
C1910       C  0.95576655  0.61290354  0.17667966    -0.31900
C1911       C  0.94930517  0.57855822  0.18468899     0.21500
C1912       C  0.91275411  0.54944497  0.18882155     0.03700
C1913       C  0.88095768  0.55329798  0.18499189    -0.21700
C1914       C  0.88740654  0.58759011  0.17693023     0.12900
S1915       S  0.92567999  0.65509825  0.16199625    -0.05300
C1916       C  0.87665909  0.63151041  0.16284995    -0.08800
C1917       C  0.86009894  0.59613352  0.17144563    -0.25400
S1918       S  0.91096131  0.51078281  0.19931822    -0.02600
C1919       C  0.95994352  0.53406155  0.19818158    -0.16000
C1920       C  0.97655677  0.56969302  0.18985519    -0.14000
H1921       H  0.98430046  0.63560322  0.17343980     0.21300
H1922       H  0.85241083  0.53051390  0.18814200     0.17400
H1923       H  0.82969650  0.57674482  0.17249503     0.19900
H1924       H  0.00696695  0.58888992  0.18864645     0.13200
C1925       C  0.70491596  0.58891437  0.18281993     0.17100
C1926       C  0.67540087  0.56084801  0.19359777    -0.31900
C1927       C  0.63915440  0.55682871  0.19186329     0.21500
C1928       C  0.63247320  0.57989387  0.18010662     0.03700
C1929       C  0.66202905  0.60807178  0.16937113    -0.21700
C1930       C  0.69827705  0.61201928  0.17105866     0.12900
S1931       S  0.75020387  0.59625852  0.18174038    -0.05300
C1932       C  0.75984922  0.62984023  0.16480958    -0.08800
C1933       C  0.73001711  0.63627779  0.16106450    -0.25400
S1934       S  0.58673430  0.57144101  0.18070146    -0.02600
C1935       C  0.57688493  0.53723303  0.19733548    -0.16000
C1936       C  0.60716953  0.53171974  0.20142595    -0.14000
H1937       H  0.68035562  0.54264886  0.20278815     0.21300
H1938       H  0.65697357  0.62599832  0.16003823     0.17400
H1939       H  0.73069536  0.65568331  0.15053522     0.19900
H1940       H  0.60632532  0.51160279  0.21157418     0.13200
C1941       C  0.92382162  0.80408182  0.17177385     0.17100
C1942       C  0.95517396  0.84072536  0.17485290    -0.31900
C1943       C  0.94814034  0.86853303  0.18246569     0.21500
C1944       C  0.91149611  0.86006305  0.18695497     0.03700
C1945       C  0.88020255  0.82339538  0.18398834    -0.21700
C1946       C  0.88720543  0.79565662  0.17631218     0.12900
S1947       S  0.92604091  0.76741153  0.16122763    -0.05300
C1948       C  0.87710329  0.74082856  0.16259766    -0.08800
C1949       C  0.86025931  0.75906489  0.17136619    -0.25400
S1950       S  0.90898932  0.89691206  0.19702467    -0.02600
C1951       C  0.95785563  0.92391673  0.19542647    -0.16000
C1952       C  0.97494358  0.90541898  0.18712759    -0.14000
H1953       H  0.98375803  0.84736379  0.17130206     0.21300
H1954       H  0.85159904  0.81681229  0.18745959     0.17400
H1955       H  0.82981512  0.74726383  0.17267390     0.19900
H1956       H  0.50581358  0.91719676  0.18623336     0.13200
C1957       C  0.78149493  0.91204996  0.92925298     0.17100
C1958       C  0.80580983  0.93767031  0.94273431    -0.31900
C1959       C  0.83554779  0.93273549  0.94915988     0.21500
C1960       C  0.84073245  0.90347175  0.94251669     0.03700
C1961       C  0.81688481  0.87831935  0.92874496    -0.21700
C1962       C  0.78722768  0.88335355  0.92227371     0.12900
S1963       S  0.74282560  0.91227614  0.92035229    -0.05300
C1964       C  0.73491876  0.87399048  0.90680480    -0.08800
C1965       C  0.76057575  0.86143641  0.90921649    -0.25400
S1966       S  0.87718601  0.90103104  0.95277750    -0.02600
C1967       C  0.88581030  0.94013398  0.96598399    -0.16000
C1968       C  0.86171698  0.95426059  0.96249232    -0.14000
H1969       H  0.80141956  0.96012603  0.94815968     0.21300
H1970       H  0.82094659  0.85553365  0.92349924     0.17400
H1971       H  0.75936749  0.83733801  0.90200859     0.19900
H1972       H  0.86284325  0.97844880  0.96956496     0.13200
C1973       C  0.58997610  0.72064298  0.93208977     0.17100
C1974       C  0.56663372  0.69825637  0.94665512    -0.31900
C1975       C  0.57084068  0.66772778  0.95264240     0.21500
C1976       C  0.59753794  0.66021539  0.94470304     0.03700
C1977       C  0.62058121  0.68233220  0.93000684    -0.21700
C1978       C  0.61595823  0.71247008  0.92382907     0.12900
S1979       S  0.58982865  0.75943307  0.92311250    -0.05300
C1980       C  0.62434536  0.76390571  0.90781826    -0.08800
C1981       C  0.63570086  0.73718479  0.90975149    -0.25400
S1982       S  0.59893168  0.62250428  0.95421295    -0.02600
C1983       C  0.56256229  0.61626169  0.96873767    -0.16000
C1984       C  0.55034565  0.64228200  0.96636989    -0.14000
H1985       H  0.54611335  0.70435565  0.95303048     0.21300
H1986       H  0.64118166  0.67630632  0.92366554     0.17400
H1987       H  0.65767321  0.73643739  0.90154290     0.19900
H1988       H  0.52781995  0.64259350  0.97428565     0.13200
C1989       C  0.58147759  0.88234492  0.92062259     0.17100
C1990       C  0.55217441  0.88259440  0.93080754    -0.31900
C1991       C  0.56275635  0.90870678  0.94559411     0.21500
C1992       C  0.60070900  0.93374627  0.94984206     0.03700
C1993       C  0.62984731  0.93348970  0.93969769    -0.21700
C1994       C  0.61932320  0.90718038  0.92513684     0.12900
S1995       S  0.57507748  0.85140929  0.90291707    -0.05300
C1996       C  0.62382970  0.87210867  0.90195729    -0.08800
C1997       C  0.64366315  0.90141195  0.91446077    -0.25400
S1998       S  0.60798668  0.96392004  0.96788643    -0.02600
C1999       C  0.55935595  0.94248834  0.96992164    -0.16000
C2000       C  0.53874383  0.91339740  0.95723392    -0.14000
H2001       H  0.52254102  0.86301158  0.92753457     0.21300
H2002       H  0.65948150  0.95269717  0.94314016     0.17400
H2003       H  0.67426279  0.91671363  0.91611352     0.19900
H2004       H  0.50797021  0.89739067  0.95623929     0.13200
C2005       C  0.57843264  0.94806614  0.84446862     0.17100
C2006       C  0.60781940  0.94738196  0.85429224    -0.31900
C2007       C  0.60962764  0.91374534  0.85360915     0.21500
C2008       C  0.58328832  0.88192461  0.84371053     0.03700
C2009       C  0.55381993  0.88260379  0.83383045    -0.21700
C2010       C  0.55205431  0.91638142  0.83447214     0.12900
S2011       S  0.57264593  0.98692474  0.84282062    -0.05300
C2012       C  0.53499390  0.96068008  0.82806946    -0.08800
C2013       C  0.52660955  0.92330717  0.82522346    -0.25400
S2014       S  0.58933313  0.84312998  0.84575725    -0.02600
C2015       C  0.62733432  0.87007776  0.86027623    -0.16000
C2016       C  0.63518558  0.90727566  0.86288307    -0.14000
H2017       H  0.62845916  0.97205135  0.86212004     0.21300
H2018       H  0.53313955  0.85790587  0.82603896     0.17400
H2019       H  0.50458174  0.90317020  0.81596167     0.19900
H2020       H  0.65704922  0.92777431  0.87210431     0.13200
C2021       C  0.61584307  0.69981178  0.84909764     0.17100
C2022       C  0.61523578  0.67071984  0.83825723    -0.31900
C2023       C  0.58223136  0.63459626  0.83875645     0.21500
C2024       C  0.55114664  0.62755133  0.84961066     0.03700
C2025       C  0.55199482  0.65650978  0.86071157    -0.21700
C2026       C  0.58496837  0.69274023  0.86011290     0.12900
S2027       S  0.65299725  0.74577354  0.85015016    -0.05300
C2028       C  0.62706014  0.75542550  0.86589570    -0.08800
C2029       C  0.59117978  0.72462806  0.86972559    -0.25400
S2030       S  0.51262478  0.58264380  0.84699220    -0.02600
C2031       C  0.53837707  0.57382819  0.83073286    -0.16000
C2032       C  0.57535217  0.60355771  0.82822099    -0.14000
H2033       H  0.63916943  0.67618998  0.82952535     0.21300
H2034       H  0.52774267  0.65126879  0.86913456     0.17400
H2035       H  0.57095261  0.72540736  0.87926555     0.19900
H2036       H  0.59521093  0.60329925  0.81825134     0.13200
C2037       C  0.86859029  0.94623279  0.84873861     0.17100
C2038       C  0.83993885  0.94440026  0.86030678    -0.31900
C2039       C  0.80361010  0.91174603  0.85912070     0.21500
C2040       C  0.79603975  0.88185958  0.84716579     0.03700
C2041       C  0.82481933  0.88353736  0.83566934    -0.21700
C2042       C  0.86112710  0.91645120  0.83670458     0.12900
S2043       S  0.91379144  0.98460756  0.84715864    -0.05300
C2044       C  0.92244331  0.96086922  0.82968888    -0.08800
C2045       C  0.89218455  0.92445730  0.82594904    -0.25400
S2046       S  0.74991452  0.84471330  0.84804283    -0.02600
C2047       C  0.74096229  0.86956024  0.86487644    -0.16000
C2048       C  0.77213785  0.90508419  0.86908187    -0.14000
H2049       H  0.84554044  0.96771854  0.86961829     0.21300
H2050       H  0.81904207  0.86048611  0.82614200     0.17400
H2051       H  0.89231639  0.90572155  0.81521235     0.19900
H2052       H  0.77198272  0.92496278  0.87911849     0.13200
C2053       C  0.86568322  0.95138492  0.77115846     0.17100
C2054       C  0.82979153  0.94279792  0.76449195    -0.31900
C2055       C  0.81901822  0.92602097  0.74676830     0.21500
C2056       C  0.84326896  0.91911454  0.73599276     0.03700
C2057       C  0.87877666  0.92720914  0.74276352    -0.21700
C2058       C  0.88905269  0.94298089  0.76061027     0.12900
S2059       S  0.88461908  0.97189623  0.79220328    -0.05300
C2060       C  0.92362524  0.96721828  0.78702578    -0.08800
C2061       C  0.92190066  0.95169795  0.76964811    -0.25400
S2062       S  0.82549043  0.89929791  0.71477115    -0.02600
C2063       C  0.78434260  0.89896424  0.72069392    -0.16000
C2064       C  0.78482222  0.91405499  0.73809570    -0.14000
H2065       H  0.81099066  0.94855165  0.77279611     0.21300
H2066       H  0.89745510  0.92110830  0.73455095     0.17400
H2067       H  0.94332422  0.94651274  0.76385094     0.19900
H2068       H  0.76133537  0.91589390  0.74408719     0.13200
C2069       C  0.55665964  0.63490806  0.77220462     0.17100
C2070       C  0.56631508  0.67127213  0.76567557    -0.31900
C2071       C  0.58288477  0.68179972  0.74795838     0.21500
C2072       C  0.58890264  0.65699773  0.73708167     0.03700
C2073       C  0.57984930  0.62094780  0.74374703    -0.21700
C2074       C  0.56397592  0.61074535  0.76158433     0.12900
S2075       S  0.53521193  0.61606310  0.79302723    -0.05300
C2076       C  0.53764016  0.57571616  0.78774198    -0.08800
C2077       C  0.55351942  0.57707731  0.77045979    -0.25400
S2078       S  0.60813761  0.67460236  0.71574876    -0.02600
C2079       C  0.60919992  0.71630800  0.72175079    -0.16000
C2080       C  0.59485272  0.71607965  0.73929058    -0.14000
H2081       H  0.56112327  0.69048379  0.77401818     0.21300
H2082       H  0.58494796  0.60167798  0.73539619     0.17400
H2083       H  0.55725733  0.55453210  0.76459459     0.19900
H2084       H  0.59315025  0.73969443  0.74533278     0.13200
C2085       C  0.57775640  0.94876312  0.76929974     0.17100
C2086       C  0.60379921  0.93846683  0.76277097    -0.31900
C2087       C  0.59809844  0.92304561  0.74479791     0.21500
C2088       C  0.56845163  0.91893049  0.73360809     0.03700
C2089       C  0.54227548  0.92897852  0.74021869    -0.21700
C2090       C  0.54744354  0.94347689  0.75837159     0.12900
S2091       S  0.57930659  0.96767634  0.79070475    -0.05300
C2092       C  0.53719169  0.96631438  0.78535259    -0.08800
C2093       C  0.52426765  0.95349586  0.76746080    -0.25400
S2094       S  0.56668004  0.89987486  0.71215572    -0.02600
C2095       C  0.60558263  0.89637448  0.71861192    -0.16000
C2096       C  0.61933076  0.90987153  0.73630331    -0.14000
H2097       H  0.62714856  0.94183780  0.77139499     0.21300
H2098       H  0.51861657  0.92514802  0.73170378     0.17400
H2099       H  0.49899662  0.95106817  0.76131615     0.19900
H2100       H  0.64341979  0.90972376  0.74266382     0.13200
C2101       C  0.70455640  0.75062425  0.42978490     0.17100
C2102       C  0.70254974  0.72471052  0.41626391    -0.31900
C2103       C  0.73693620  0.72997320  0.40913483     0.21500
C2104       C  0.77172023  0.75964616  0.41527502     0.03700
C2105       C  0.77374007  0.78506568  0.42906494    -0.21700
C2106       C  0.73937855  0.77990012  0.43613226     0.12900
S2107       S  0.66613423  0.75067001  0.43918291    -0.05300
C2108       C  0.69727797  0.79020215  0.45189479    -0.08800
C2109       C  0.73536962  0.80260797  0.44900992    -0.25400
S2110       S  0.81013808  0.76240748  0.40434551    -0.02600
C2111       C  0.77910688  0.72297757  0.39142839    -0.16000
C2112       C  0.74098388  0.70850598  0.39552198    -0.14000
H2113       H  0.67538736  0.70195736  0.41124689     0.21300
H2114       H  0.80088796  0.80831040  0.43379941     0.17400
H2115       H  0.75870408  0.82746718  0.45557223     0.19900
H2116       H  0.71758570  0.68407152  0.38873274     0.13200
C2117       C  0.53832744  0.78660472  0.43514285     0.17100
C2118       C  0.50721804  0.78448852  0.42568463    -0.31900
C2119       C  0.99232416  0.75820184  0.41046115     0.21500
C2120       C  0.00401314  0.73192187  0.40707982     0.03700
C2121       C  0.53716695  0.73698080  0.41547617    -0.21700
C2122       C  0.55295041  0.76351864  0.42995470     0.12900
S2123       S  0.56215141  0.81719468  0.45306655    -0.05300
C2124       C  0.59201521  0.79861474  0.45327111    -0.08800
C2125       C  0.58384976  0.77048413  0.44025381    -0.25400
S2126       S  0.97954531  0.69985515  0.38988029    -0.02600
C2127       C  0.95355285  0.72237215  0.38705734    -0.16000
C2128       C  0.96347923  0.75303027  0.39887264    -0.14000
H2129       H  0.49580522  0.80263044  0.42951243     0.21300
H2130       H  0.54869900  0.71895836  0.41160087     0.17400
H2131       H  0.59994198  0.75616832  0.43828978     0.19900
H2132       H  0.94963915  0.76993115  0.39929803     0.13200
C2133       C  0.77273292  0.50603283  0.41123635     0.17100
C2134       C  0.77558010  0.98097110  0.42311362    -0.31900
C2135       C  0.74194745  0.95359173  0.43177065     0.21500
C2136       C  0.70689467  0.94927623  0.42697894     0.03700
C2137       C  0.70402202  0.97287063  0.41366030    -0.21700
C2138       C  0.73811701  0.49953228  0.40427389     0.12900
S2139       S  0.81153455  0.54266336  0.40082299    -0.05300
C2140       C  0.78076706  0.54975111  0.38720366    -0.08800
C2141       C  0.74253609  0.52481069  0.39056417    -0.25400
S2142       S  0.66913705  0.91307099  0.43821731    -0.02600
C2143       C  0.70096094  0.90442176  0.44985730    -0.16000
C2144       C  0.73874637  0.92795449  0.44509065    -0.14000
H2145       H  0.80286798  0.98399766  0.42666257     0.21300
H2146       H  0.67653189  0.46458970  0.40540381     0.17400
H2147       H  0.71930116  0.52519883  0.38338899     0.19900
H2148       H  0.76228895  0.92579658  0.45074741     0.13200
C2149       C  0.77052931  0.76370231  0.61962921     0.17100
C2150       C  0.79920249  0.75919081  0.61133601    -0.31900
C2151       C  0.78884403  0.73355845  0.59639789     0.21500
C2152       C  0.75168048  0.71343193  0.58987760     0.03700
C2153       C  0.72288946  0.71752878  0.59835205    -0.21700
C2154       C  0.73318367  0.74293233  0.61340602     0.12900
S2155       S  0.77749968  0.79441053  0.63749070    -0.05300
C2156       C  0.72944596  0.77847793  0.63681160    -0.08800
C2157       C  0.70936268  0.75096977  0.62338754    -0.25400
S2158       S  0.74520475  0.68436245  0.57130825    -0.02600
C2159       C  0.79309599  0.69960758  0.57241614    -0.16000
C2160       C  0.81263644  0.72536485  0.58654786    -0.14000
H2161       H  0.82835083  0.77514518  0.61622401     0.21300
H2162       H  0.69379078  0.70174446  0.59338810     0.17400
H2163       H  0.67911690  0.73823912  0.62079260     0.19900
H2164       H  0.84276284  0.73768740  0.58932424     0.13200
C2165       C  0.49673740  0.72785795  0.61557426     0.17100
C2166       C  0.96976810  0.70048545  0.60365180    -0.31900
C2167       C  0.94949900  0.71199316  0.59224527     0.21500
C2168       C  0.95470144  0.74853008  0.59329642     0.03700
C2169       C  0.98127163  0.77563792  0.60556657    -0.21700
C2170       C  0.50184537  0.76434159  0.61666165     0.12900
S2171       S  0.52598626  0.72033821  0.62972263    -0.05300
C2172       C  0.54566263  0.76702702  0.63697319    -0.08800
C2173       C  0.52984528  0.78694424  0.62896364    -0.25400
S2174       S  0.92569120  0.75612441  0.57907077    -0.02600
C2175       C  0.90790528  0.71024666  0.57101683    -0.16000
C2176       C  0.92258836  0.68985496  0.57941289    -0.14000
H2177       H  0.96537250  0.67183990  0.60287721     0.21300
H2178       H  0.98568376  0.80429597  0.60632255     0.17400
H2179       H  0.53905913  0.81669203  0.63161177     0.19900
H2180       H  0.91325653  0.66014798  0.57661708     0.13200
C2181       C  0.72582928  0.98871208  0.60735731     0.17100
C2182       C  0.72824940  0.51118191  0.59347431    -0.31900
C2183       C  0.76270052  0.54216534  0.58738236     0.21500
C2184       C  0.79700998  0.55159490  0.59587829     0.03700
C2185       C  0.79848784  0.52977802  0.61060164    -0.21700
C2186       C  0.75993888  0.99768303  0.61592202     0.12900
S2187       S  0.68686055  0.95029533  0.61675558    -0.05300
C2188       C  0.71703905  0.94606087  0.63216087    -0.08800
C2189       C  0.75512784  0.97306841  0.63003279    -0.25400
S2190       S  0.83528400  0.59177525  0.58732670    -0.02600
C2191       C  0.80487038  0.59535158  0.57191196    -0.16000
C2192       C  0.76708513  0.56710138  0.57346295    -0.14000
H2193       H  0.70143129  0.50426957  0.58703827     0.21300
H2194       H  0.82523773  0.53707679  0.61723940     0.17400
H2195       H  0.77801068  0.97485249  0.63850169     0.19900
H2196       H  0.74405134  0.56569458  0.56526887     0.13200
C2197       C  0.75261710  0.71660693  0.51113204     0.17100
C2198       C  0.72673082  0.71876304  0.49901929    -0.31900
C2199       C  0.72175740  0.75054675  0.50066323     0.21500
C2200       C  0.74153492  0.77895826  0.51374169     0.03700
C2201       C  0.76719194  0.77665712  0.52595094    -0.21700
C2202       C  0.77228673  0.74496810  0.52426307     0.12900
S2203       S  0.76243093  0.68014804  0.51165038    -0.05300
C2204       C  0.79254204  0.70288042  0.53008185    -0.08800
C2205       C  0.79562958  0.73753284  0.53495718    -0.25400
S2206       S  0.73271755  0.81604424  0.51280879    -0.02600
C2207       C  0.70286768  0.79357041  0.49424661    -0.16000
C2208       C  0.69893839  0.75834621  0.48975977    -0.14000
H2209       H  0.71133116  0.69678735  0.48868158     0.21300
H2210       H  0.78273687  0.79873513  0.53622230     0.17400
H2211       H  0.81332102  0.75590028  0.54610995     0.19900
H2212       H  0.68099236  0.73963073  0.47879574     0.13200
C2213       C  0.75230962  0.96667936  0.51059264     0.17100
C2214       C  0.77469556  0.49301925  0.52275567    -0.31900
C2215       C  0.77921916  0.52975006  0.52199986     0.21500
C2216       C  0.75908364  0.53861682  0.50937754     0.03700
C2217       C  0.73339949  0.51094356  0.49686144    -0.21700
C2218       C  0.73154518  0.97486033  0.49804316     0.12900
S2219       S  0.74273359  0.92035762  0.50962034    -0.05300
C2220       C  0.71066480  0.91204401  0.49200310    -0.08800
C2221       C  0.70751901  0.94368145  0.48748326    -0.25400
S2222       S  0.76786824  0.58453242  0.51110772    -0.02600
C2223       C  0.79845218  0.59173659  0.52928368    -0.16000
C2224       C  0.80211433  0.56016749  0.53329687    -0.14000
H2225       H  0.79034172  0.48617225  0.53271383     0.21300
H2226       H  0.71749263  0.51769568  0.48701854     0.17400
H2227       H  0.68847826  0.94393409  0.47705198     0.19900
H2228       H  0.82009792  0.55922218  0.54413542     0.13200
C2229       C  0.53753852  0.78506993  0.51330608     0.17100
C2230       C  0.00836794  0.78487306  0.52378180    -0.31900
C2231       C  0.97211778  0.75188634  0.52276566     0.21500
C2232       C  0.96537978  0.72086015  0.51185914     0.03700
C2233       C  0.49359573  0.72243519  0.50018497    -0.21700
C2234       C  0.53008250  0.75503582  0.50147483     0.12900
S2235       S  0.58348343  0.82265408  0.51221945    -0.05300
C2236       C  0.59244728  0.79808482  0.49527462    -0.08800
C2237       C  0.56152006  0.76215067  0.49130936    -0.25400
S2238       S  0.91973990  0.68298837  0.51322025    -0.02600
C2239       C  0.90971201  0.70898096  0.52887114    -0.16000
C2240       C  0.94013843  0.74549917  0.53221642    -0.14000
H2241       H  0.01343458  0.80899075  0.53236874     0.21300
H2242       H  0.48800992  0.69909031  0.49089735     0.17400
H2243       H  0.56160124  0.74281669  0.48090351     0.19900
H2244       H  0.93921606  0.76617717  0.54137409     0.13200
loop_ 
_geom_bond_atom_site_label_1 
_geom_bond_atom_site_label_2 
_geom_bond_distance 
_geom_bond_site_symmetry_2 
_ccdc_geom_bond_type 
C1            H2   1.113       .  S
C1            C7   1.523       .  S
C1            C6   1.528       .  S
C1            C5   1.518       .  S
C3            H4   1.111       .  S
C3            C9   1.547       .  S
C3            C8   1.553       .  S
C3           C10   1.550       .  S
C5            C8   1.370       .  D
C5          C492   1.471       .  S
C6            C9   1.375       .  D
C6          C508   1.471       .  S
C7           C10   1.371       .  D
C7          C476   1.463       .  S
C8          C556   1.479       .  S
C9          C540   1.487       .  S
C10         C521   1.489       .  S
C11          H12   1.111       .  S
C11          C17   1.548       .  S
C11          C16   1.551       .  S
C11          C15   1.551       .  S
C13          H14   1.113       .  S
C13          C19   1.517       .  S
C13          C18   1.526       .  S
C13          C20   1.529       .  S
C15          C18   1.376       .  D
C15         C524   1.490       .  S
C16          C19   1.369       .  D
C16         C553   1.480       .  S
C17          C20   1.375       .  D
C17         C537   1.492       .  S
C18         C425   1.472       .  S
C19         C441   1.466       .  S
C20         C460   1.469       .  S
Zn21         O25   1.959       .  S
Zn21         O26   2.016       .  S
Zn21         O30   2.019       .  S
Zn21         O37   2.001       .  S
Zn22         O25   1.954       .  S
Zn22         O27   2.016       .  S
Zn22         O29   2.013       .  S
Zn22         O33   2.010       .  S
Zn23         O25   1.950       .  S
Zn23         O28   2.015       .  S
Zn23         O31   1.986       .  S
Zn23         O34   2.001       .  S
Zn24         O25   1.959       .  S
Zn24         O32   2.009       .  S
Zn24         O35   2.023       .  S
Zn24         O36   1.999       .  S
O26          C38   1.273       .  A
O27          C39   1.273       .  A
O28          C40   1.273       .  A
O29          C38   1.272       .  A
O30          C40   1.273       .  A
O31          C39   1.269       .  A
O32          C41   1.271       .  A
O33          C42   1.272       .  A
O34          C41   1.271       .  A
O35          C42   1.274       .  A
O36          C43   1.271       .  A
O37          C43   1.271       .  A
C38         C489   1.473       .  S
C39         C412   1.459       .  S
C40         C396   1.467       .  S
C41         C380   1.462       .  S
C42         C505   1.469       .  S
C43         C473   1.461       .  S
C44          H45   1.108       .  S
C44          C50   1.529   1_655  S
C44         C610   1.533   1_645  S
C44        C1731   1.534   1_545  S
C46          H47   1.111       .  S
C46          C53   1.545   1_665  S
C46         C613   1.544   1_655  S
C46        C1734   1.545       .  S
C48        C1727   1.533       .  S
C48          C51   1.376       .  D
C48         C377   1.483       .  S
C49         C605   1.529       .  S
C49          C52   1.373       .  D
C49         C409   1.479       .  S
C50          C53   1.376       .  D
C50         C393   1.482       .  S
C51        C1729   1.544       .  S
C51         C361   1.485       .  S
C52         C607   1.544       .  S
C52         C329   1.482       .  S
C53         C348   1.486       .  S
C54          H55   1.110       .  S
C54          C60   1.550       .  S
C54          C59   1.551       .  S
C54          C58   1.554       .  S
C56          H57   1.113       .  S
C56          C62   1.520       .  S
C56          C61   1.514       .  S
C56          C63   1.520       .  S
C58          C61   1.371       .  D
C58         C332   1.485       .  S
C59          C62   1.375       .  D
C59         C345   1.486       .  S
C60          C63   1.375       .  D
C60         C364   1.491       .  S
C61         C313   1.466       .  S
C62         C297   1.469       .  S
C63         C281   1.464       .  S
C64          H65   1.106       .  S
C64          C70   1.532       .  S
C64          C69   1.533       .  S
C64          C68   1.527       .  S
C66          H67   1.111       .  S
C66          C72   1.547       .  S
C66          C71   1.549       .  S
C66          C73   1.543       .  S
C68          C71   1.376       .  D
C68         C204   1.485       .  S
C69          C72   1.378       .  D
C69         C220   1.491       .  S
C70          C73   1.372       .  D
C70         C185   1.488       .  S
C71         C249   1.479       .  S
C72         C233   1.480       .  S
C73         C265   1.476       .  S
C74          H75   1.111       .  S
C74          C79   1.550       .  S
C74        C1763   1.551       .  S
C74         C639   1.550       .  S
C76          H77   1.108       .  S
C76          C82   1.520       .  S
C76         C642   1.527       .  S
C76        C1766   1.517       .  S
C78         C635   1.545       .  S
C78          C81   1.369       .  D
C78         C236   1.483       .  S
C79          C82   1.369       .  D
C79         C268   1.473       .  S
C80        C1757   1.551   1_455  S
C80          C83   1.375       .  D
C80         C252   1.477       .  S
C81         C637   1.524   1_545  S
C81         C169   1.471       .  S
C82         C153   1.476       .  S
C83        C1759   1.524   1_445  S
C83         C140   1.485       .  S
Zn84         O88   1.970       .  S
Zn84         O89   2.040       .  S
Zn84         O93   2.051       .  S
Zn84        O100   2.046       .  S
Zn85         O88   1.954       .  S
Zn85         O90   2.019       .  S
Zn85         O92   1.983       .  S
Zn85         O96   2.009       .  S
Zn86         O88   1.923       .  S
Zn86         O91   1.976       .  S
Zn86         O94   1.957       .  S
Zn86         O97   1.955       .  S
Zn87         O88   1.948       .  S
Zn87         O95   2.029       .  S
Zn87         O98   2.001       .  S
Zn87         O99   1.988       .  S
O89         C101   1.277       .  A
O90         C102   1.272       .  A
O91         C103   1.268       .  A
O92         C101   1.270       .  A
O93         C103   1.278       .  A
O94         C102   1.264       .  A
O95         C104   1.272       .  A
O96         C105   1.272       .  A
O97         C104   1.264       .  A
O98         C105   1.272       .  A
O99         C106   1.271       .  A
O100        C106   1.277       .  A
C101        C457   1.469       .  S
C102        C172   1.453       .  S
C103        C137   1.467       .  S
C104        C156   1.457       .  S
C105        C444   1.467       .  S
C106        C428   1.472       .  S
Zn107       O672   1.954       .  S
Zn107       O112   2.021       .  S
Zn107       O123   1.990   1_554  S
Zn107      O1238   1.999   1_554  S
Zn108       O111   1.933       .  S
Zn108       O119   1.972   1_565  S
Zn108      O1235   1.989   1_565  S
Zn108       O676   1.983       .  S
Zn109      O1233   1.957   1_445  S
Zn109       O117   2.030       .  S
Zn109       O120   2.017   1_554  S
Zn109       O675   2.002   1_544  S
Zn110       O111   1.965   1_545  S
Zn110       O121   2.034       .  S
Zn110      O1240   2.018   1_554  S
Zn110       O683   2.028   1_544  S
O111       Zn668   1.956       .  S
O111      Zn1231   1.956   1_565  S
O112        C124   1.273       .  A
O113      Zn1230   1.984   1_445  S
O113        C125   1.269       .  A
O114       Zn670   2.001   1_556  S
O114        C126   1.271       .  A
O115       Zn669   1.989       .  S
O115        C124   1.270       .  A
O116      Zn1229   1.999   1_456  S
O116        C126   1.270       .  A
O117        C125   1.275       .  A
O118      Zn1232   2.019   1_456  S
O118        C127   1.275       .  A
O119        C128   1.268       .  A
O120        C127   1.273       .  A
O121        C128   1.274       .  A
O122       Zn671   2.019   1_556  S
O122        C129   1.274       .  A
O123        C129   1.270       .  A
C124        C188   1.464       .  S
C125        C201   1.464       .  S
C126        C316   1.463       .  S
C127        C300   1.470       .  S
C128        C217   1.466       .  S
C129        C284   1.464       .  S
C130        S136   1.702       .  A
C130        C135   1.388       .  A
C130        C131   1.403       .  A
C131        C132   1.402       .  A
C131        H142   1.083       .  S
C132        C141   1.372       .  A
C132        C133   1.386       .  A
C133        S139   1.695       .  A
C133        C134   1.399       .  A
C134        C135   1.398       .  A
C134        H143   1.083       .  S
C135        C138   1.370       .  A
S136        C137   1.725       .  A
C137        C138   1.383       .  A
C138        H144   1.083       .  S
S139        C140   1.726       .  A
C140        C141   1.387       .  A
C141        H145   1.078       .  S
C146        S152   1.711       .  A
C146        C151   1.384       .  A
C146        C147   1.400       .  A
C147        C148   1.404       .  A
C147        H158   1.083       .  S
C148        C157   1.363       .  A
C148        C149   1.388       .  A
C149        S155   1.705       .  A
C149        C150   1.393       .  A
C150        C151   1.397       .  A
C150        H159   1.083       .  S
C151        C154   1.355       .  A
S152        C153   1.724       .  A
C153        C154   1.380       .  A
C154       H1282   1.075       .  S
S155        C156   1.715       .  A
C156        C157   1.386       .  A
C157        H161   1.083       .  S
H160       C1276   1.073       .  S
C162        S168   1.691       .  A
C162        C167   1.387       .  A
C162        C163   1.396       .  A
C163        C164   1.395       .  A
C163        H174   1.083       .  S
C164        C173   1.365       .  A
C164        C165   1.389       .  A
C165        S171   1.696       .  A
C165        C166   1.397       .  A
C166        C167   1.396       .  A
C166        H175   1.083       .  S
C167        C170   1.366       .  A
S168        C169   1.718       .  A
C169        C170   1.382       .  A
C170       H1298   1.082       .  S
S171        C172   1.720       .  A
C172        C173   1.379       .  A
C173        H177   1.083       .  S
H176       C1292   1.082       .  S
C178        S184   1.707       .  A
C178        C183   1.384       .  A
C178        C179   1.400       .  A
C179        C180   1.403       .  A
C179        H190   1.083       .  S
C180        C189   1.366       .  A
C180        C181   1.387       .  A
C181        S187   1.706       .  A
C181        C182   1.396       .  A
C182        C183   1.399       .  A
C182        H191   1.083       .  S
C183        C186   1.361       .  A
S184        C185   1.727       .  A
C185        C186   1.383       .  A
C186        H192   1.074       .  S
S187        C188   1.719       .  A
C188        C189   1.386       .  A
C189        H193   1.083       .  S
C194        S200   1.702       .  A
C194        C199   1.388       .  A
C194        C195   1.400       .  A
C195        C196   1.400       .  A
C195        H206   1.083       .  S
C196        C205   1.369       .  A
C196        C197   1.385       .  A
C197        S203   1.699       .  A
C197        C198   1.400       .  A
C198        C199   1.400       .  A
C198        H207   1.083       .  S
C199        C202   1.369       .  A
S200        C201   1.722       .  A
C201        C202   1.383       .  A
C202        H208   1.083       .  S
S203        C204   1.726       .  A
C204        C205   1.386       .  A
C205        H209   1.077       .  S
C210        S216   1.709       .  A
C210        C215   1.387       .  A
C210        C211   1.397       .  A
C211        C212   1.401       .  A
C211        H222   1.083       .  S
C212        C221   1.361       .  A
C212        C213   1.383       .  A
C213        S219   1.705       .  A
C213        C214   1.398       .  A
C214        C215   1.402       .  A
C214        H223   1.083       .  S
C215        C218   1.363       .  A
S216        C217   1.720       .  A
C217        C218   1.386       .  A
C218        H224   1.083       .  S
S219        C220   1.728       .  A
C220        C221   1.387       .  A
C221        H225   1.074       .  S
C226        S232   1.709       .  A
C226        C231   1.388       .  A
C226        C227   1.405       .  A
C227        C228   1.404       .  A
C227        H238   1.083       .  S
C228        C237   1.376       .  A
C228        C229   1.387       .  A
C229        S235   1.708       .  A
C229        C230   1.405       .  A
C230        C231   1.404       .  A
C230        H239   1.083       .  S
C231        C234   1.376       .  A
S232        C233   1.725       .  A
C233        C234   1.386       .  A
C234        H240   1.083       .  S
S235        C236   1.727       .  A
C236        C237   1.386       .  A
C237        H241   1.083       .  S
C242        S248   1.713       .  A
C242        C247   1.387       .  A
C242        C243   1.405       .  A
C243        C244   1.406       .  A
C243        H254   1.083       .  S
C244        C253   1.374       .  A
C244        C245   1.387       .  A
C245        S251   1.711       .  A
C245        C246   1.404       .  A
C246        C247   1.405       .  A
C246        H255   1.083       .  S
C247        C250   1.373       .  A
S248        C249   1.722       .  A
C249        C250   1.386       .  A
C250        H256   1.083       .  S
S251        C252   1.722       .  A
C252        C253   1.386       .  A
C253        H257   1.083   1_545  S
C258        S264   1.708       .  A
C258        C263   1.388       .  A
C258        C259   1.405       .  A
C259        C260   1.404       .  A
C259        H270   1.083       .  S
C260        C269   1.375       .  A
C260        C261   1.387       .  A
C261        S267   1.704       .  A
C261        C262   1.402       .  A
C262        C263   1.401       .  A
C262        H271   1.083       .  S
C263        C266   1.373       .  A
S264        C265   1.724       .  A
C265        C266   1.384       .  A
C266        H272   1.083       .  S
S267        C268   1.721       .  A
C268        C269   1.386       .  A
C269       H1395   1.083       .  S
H273       C1391   1.083   1_455  S
C274        S280   1.701       .  A
C274        C279   1.388       .  A
C274        C275   1.398       .  A
C275        C276   1.399       .  A
C275        H286   1.083       .  S
C276        C285   1.367       .  A
C276        C277   1.388       .  A
C277        S283   1.701       .  A
C277        C278   1.399       .  A
C278        C279   1.399       .  A
C278        H287   1.083       .  S
C279        C282   1.367       .  A
S280        C281   1.718       .  A
C281        C282   1.380       .  A
C282        H288   1.083       .  S
S283        C284   1.722       .  A
C284        C285   1.383       .  A
C285        H289   1.083       .  S
C290        S296   1.703       .  A
C290        C295   1.388       .  A
C290        C291   1.398       .  A
C291        C292   1.399       .  A
C291        H302   1.083       .  S
C292        C301   1.368       .  A
C292        C293   1.387       .  A
C293        S299   1.708       .  A
C293        C294   1.403       .  A
C294        C295   1.403       .  A
C294        H303   1.083       .  S
C295        C298   1.371       .  A
S296        C297   1.718       .  A
C297        C298   1.384       .  A
C298        H304   1.083       .  S
S299        C300   1.724       .  A
C300        C301   1.384       .  A
C301        H305   1.083       .  S
C306        S312   1.709       .  A
C306        C311   1.388       .  A
C306        C307   1.401       .  A
C307        C308   1.403       .  A
C307        H318   1.083       .  S
C308        C317   1.368       .  A
C308        C309   1.388       .  A
C309        S315   1.701       .  A
C309        C310   1.395       .  A
C310        C311   1.396       .  A
C310        H319   1.083       .  S
C311        C314   1.361       .  A
S312        C313   1.720       .  A
C313        C314   1.378       .  A
C314        H320   1.081       .  S
S315        C316   1.718       .  A
C316        C317   1.387       .  A
C317        H321   1.083       .  S
C322        S328   1.710       .  A
C322        C327   1.386       .  A
C322        C323   1.399       .  A
C323        C324   1.402       .  A
C323        H334   1.083       .  S
C324        C333   1.364       .  A
C324        C325   1.385       .  A
C325        S331   1.717       .  A
C325        C326   1.405       .  A
C326        C327   1.407       .  A
C326        H335   1.083       .  S
C327        C330   1.370       .  A
S328        C329   1.718       .  A
C329        C330   1.391       .  A
C330        H336   1.083       .  S
S331        C332   1.723       .  A
C332        C333   1.388       .  A
C333        H337   1.083       .  S
C338        S344   1.711       .  A
C338        C343   1.385       .  A
C338        C339   1.403       .  A
C339        C340   1.405       .  A
C339        H350   1.083       .  S
C340        C349   1.370       .  A
C340        C341   1.386       .  A
C341        S347   1.711       .  A
C341        C342   1.402       .  A
C342        C343   1.404       .  A
C342        H351   1.083       .  S
C343        C346   1.369       .  A
S344        C345   1.722       .  A
C345        C346   1.390       .  A
C346        H352   1.082       .  S
S347        C348   1.722       .  A
C348        C349   1.390       .  A
C349        H353   1.083       .  S
C354        S360   1.709       .  A
C354        C359   1.386       .  A
C354        C355   1.399       .  A
C355        C356   1.402       .  A
C355        H366   1.083       .  S
C356        C365   1.366       .  A
C356        C357   1.385       .  A
C357        S363   1.716       .  A
C357        C358   1.406       .  A
C358        C359   1.408       .  A
C358        H367   1.083       .  S
C359        C362   1.373       .  A
S360        C361   1.719       .  A
C361        C362   1.392       .  A
C362        H368   1.083       .  S
S363        C364   1.726       .  A
C364        C365   1.389       .  A
C365        H369   1.081       .  S
C370        S376   1.708       .  A
C370        C375   1.384       .  A
C370        C371   1.400       .  A
C371        C372   1.403       .  A
C371        H382   1.083       .  S
C372        C381   1.367       .  A
C372        C373   1.388       .  A
C373        S379   1.704       .  A
C373        C374   1.396       .  A
C374        C375   1.399       .  A
C374        H383   1.083       .  S
C375        C378   1.361       .  A
S376        C377   1.727       .  A
C377        C378   1.383       .  A
C378        H384   1.074       .  S
S379        C380   1.718       .  A
C380        C381   1.385       .  A
C381        H385   1.083       .  S
C386        S392   1.707       .  A
C386        C391   1.386       .  A
C386        C387   1.400       .  A
C387        C388   1.402       .  A
C387        H398   1.083       .  S
C388        C397   1.369       .  A
C388        C389   1.387       .  A
C389        S395   1.708       .  A
C389        C390   1.400       .  A
C390        C391   1.402       .  A
C390        H399   1.083       .  S
C391        C394   1.367       .  A
S392        C393   1.725       .  A
C393        C394   1.386       .  A
C394        H400   1.083       .  S
S395        C396   1.722       .  A
C396        C397   1.385       .  A
C397        H401   1.083       .  S
C402        S408   1.707       .  A
C402        C407   1.385       .  A
C402        C403   1.401       .  A
C403        C404   1.403       .  A
C403        H414   1.083       .  S
C404        C413   1.367       .  A
C404        C405   1.388       .  A
C405        S411   1.702       .  A
C405        C406   1.395       .  A
C406        C407   1.397       .  A
C406        H415   1.083       .  S
C407        C410   1.361       .  A
S408        C409   1.727       .  A
C409        C410   1.380       .  A
C410        H416   1.076   1_455  S
S411        C412   1.716       .  A
C412        C413   1.386       .  A
C413        H417   1.083       .  S
C418        S424   1.706       .  A
C418        C423   1.388       .  A
C418        C419   1.404       .  A
C419        C420   1.404       .  A
C419        H430   1.083       .  S
C420        C429   1.375       .  A
C420        C421   1.387       .  A
C421        S427   1.700       .  A
C421        C422   1.399       .  A
C422        C423   1.399       .  A
C422        H431   1.083       .  S
C423        C426   1.370       .  A
S424        C425   1.722       .  A
C425        C426   1.381       .  A
C426        H432   1.083       .  S
S427        C428   1.723       .  A
C428        C429   1.387       .  A
C429        H433   1.083       .  S
C434        S440   1.707       .  A
C434        C439   1.388       .  A
C434        C435   1.399       .  A
C435       C1558   1.401   1_455  A
C435        H446   1.083   1_455  S
C436        C445   1.366       .  A
C436        C437   1.387       .  A
C436       C1557   1.401       .  A
C437        S443   1.706       .  A
C437       C1560   1.399       .  A
C438        C439   1.401       .  A
C438       C1559   1.399   1_455  A
C438        H447   1.083       .  S
C439        C442   1.364       .  A
S440        C441   1.717       .  A
C441        C442   1.380       .  A
C442        H448   1.082       .  S
S443        C444   1.722       .  A
C444        C445   1.385       .  A
C445        H449   1.083       .  S
C450        S456   1.702       .  A
C450        C455   1.388       .  A
C450       C1012   1.401   1_545  A
C451        C452   1.401       .  A
C451       C1011   1.401       .  A
C451        H462   1.083       .  S
C452        C461   1.370       .  A
C452        C453   1.388       .  A
C453        S459   1.705       .  A
C453        C454   1.400       .  A
C454       C1016   1.401       .  A
C454       H1024   1.083       .  S
C455        C458   1.371       .  A
C455       C1015   1.400   1_545  A
S456        C457   1.725       .  A
C457        C458   1.384       .  A
C458        H464   1.083       .  S
S459        C460   1.719       .  A
C460        C461   1.383       .  A
C461        H465   1.083       .  S
H463       C1015   1.083       .  S
C466        S472   1.701       .  A
C466        C471   1.388       .  A
C466        C467   1.395       .  A
C467        C468   1.397       .  A
C467        H478   1.083       .  S
C468        C477   1.361       .  A
C468        C469   1.388       .  A
C469        S475   1.707       .  A
C469        C470   1.400       .  A
C470        C471   1.402       .  A
C470        H479   1.083       .  S
C471        C474   1.367       .  A
S472        C473   1.719       .  A
C473        C474   1.385       .  A
C474        H480   1.083       .  S
S475        C476   1.719       .  A
C476        C477   1.378       .  A
C477        H481   1.082       .  S
C482        S488   1.706       .  A
C482        C487   1.387       .  A
C482       C1605   1.401   1_455  A
C483        C484   1.401       .  A
C483       C1604   1.401       .  A
C483        H494   1.083       .  S
C484        C493   1.370       .  A
C484        C485   1.388       .  A
C485        S491   1.706       .  A
C485        C486   1.402       .  A
C486       C1609   1.402       .  A
C486        H495   1.083       .  S
C487        C490   1.371       .  A
C487       C1608   1.403   1_455  A
S488        C489   1.723       .  A
C489        C490   1.388       .  A
C490        H496   1.083       .  S
S491        C492   1.720       .  A
C492        C493   1.382       .  A
C493        H497   1.083       .  S
C498        S504   1.704       .  A
C498        C503   1.387       .  A
C498       C1060   1.401       .  A
C499        C500   1.403       .  A
C499       C1059   1.403   1_545  A
C499        H510   1.083       .  S
C500        C509   1.371       .  A
C500        C501   1.388       .  A
C501        S507   1.704       .  A
C501        C502   1.399       .  A
C502       C1064   1.400   1_545  A
C502        H511   1.083       .  S
C503        C506   1.372       .  A
C503       C1063   1.402       .  A
S504        C505   1.722       .  A
C505        C506   1.386       .  A
C506        H512   1.083       .  S
S507        C508   1.718       .  A
C508        C509   1.385       .  A
C509        H513   1.083       .  S
C514        S520   1.716       .  A
C514        C519   1.386       .  A
C514        C515   1.405       .  A
C515        C516   1.407       .  A
C515        H526   1.083       .  S
C516        C525   1.372       .  A
C516        C517   1.385       .  A
C517        S523   1.713       .  A
C517        C518   1.404       .  A
C518        C519   1.406       .  A
C518        H527   1.083       .  S
C519        C522   1.372       .  A
S520        C521   1.722       .  A
C521        C522   1.391       .  A
C522        H528   1.083       .  S
S523        C524   1.723       .  A
C524        C525   1.392       .  A
C525        H529   1.082       .  S
C530        S536   1.714       .  A
C530        C535   1.385       .  A
C530       C1092   1.405       .  A
C531        C532   1.406   1_565  A
C531       C1091   1.405       .  A
C531        H542   1.083       .  S
C532        C541   1.372       .  A
C532        C533   1.386       .  A
C533        S539   1.711       .  A
C533        C534   1.402       .  A
C534       C1096   1.404   1_545  A
C534        H543   1.083       .  S
C535        C538   1.373       .  A
C535       C1095   1.406       .  A
S536        C537   1.723       .  A
C537        C538   1.392       .  A
C538        H544   1.082       .  S
S539        C540   1.722       .  A
C540        C541   1.391       .  A
C541        H545   1.082       .  S
C546        S552   1.715       .  A
C546        C551   1.386       .  A
C546       C1669   1.404       .  A
C547        C548   1.406       .  A
C547       C1668   1.404       .  A
C547        H558   1.083       .  S
C548        C557   1.370       .  A
C548        C549   1.386       .  A
C549        S555   1.710       .  A
C549       C1672   1.401       .  A
C550        C551   1.403   1_655  A
C550       C1671   1.401       .  A
C550        H559   1.083       .  S
C551        C554   1.367       .  A
S552        C553   1.722       .  A
C553        C554   1.387       .  A
C554        H560   1.083       .  S
S555        C556   1.719       .  A
C556        C557   1.388       .  A
C557        H561   1.082       .  S
C562        H563   1.113       .  S
C562        C568   1.524       .  S
C562        C567   1.526       .  S
C562        C566   1.517       .  S
C564        H565   1.111       .  S
C564        C570   1.551       .  S
C564        C569   1.556       .  S
C564        C571   1.551       .  S
C566        C569   1.373       .  D
C566       C1053   1.464       .  S
C567        C570   1.375       .  D
C567       C1069   1.472       .  S
C568        C571   1.375       .  D
C568       C1037   1.475       .  S
C569       C1117   1.493       .  S
C570       C1101   1.491       .  S
C571       C1082   1.486       .  S
C572        H573   1.110       .  S
C572        C578   1.551       .  S
C572        C577   1.554       .  S
C572        C576   1.550       .  S
C574        H575   1.113       .  S
C574        C580   1.516       .  S
C574        C579   1.522       .  S
C574        C581   1.523       .  S
C576        C579   1.375       .  D
C576       C1085   1.489       .  S
C577        C580   1.370       .  D
C577       C1114   1.485       .  S
C578        C581   1.374       .  D
C578       C1098   1.489       .  S
C579        C986   1.467       .  S
C580       C1002   1.464       .  S
C581       C1021   1.469       .  S
Zn582       O586   1.959       .  S
Zn582       O587   2.010       .  S
Zn582       O591   2.020       .  S
Zn582       O598   2.012       .  S
Zn583       O586   1.960       .  S
Zn583       O588   2.025       .  S
Zn583       O590   1.988       .  S
Zn583       O594   2.009       .  S
Zn584       O586   1.950       .  S
Zn584       O589   2.021       .  S
Zn584       O592   1.990       .  S
Zn584       O595   2.009       .  S
Zn585       O586   1.958       .  S
Zn585       O593   2.018       .  S
Zn585       O596   2.029       .  S
Zn585       O597   2.020       .  S
O587        C599   1.272       .  A
O588        C600   1.273       .  A
O589        C601   1.274       .  A
O590        C599   1.270       .  A
O591        C601   1.274       .  A
O592        C600   1.270       .  A
O593        C602   1.273       .  A
O594        C603   1.272       .  A
O595        C602   1.272       .  A
O596        C603   1.275       .  A
O597        C604   1.273       .  A
O598        C604   1.272       .  A
C599       C1050   1.464       .  S
C600        C973   1.466       .  S
C601        C957   1.471       .  S
C602        C941   1.466       .  S
C603       C1066   1.470       .  S
C604       C1034   1.469       .  S
C605        H606   1.108       .  S
C605        C611   1.530       .  S
C605       C1170   1.533   1_455  S
C607        H608   1.111       .  S
C607       C1173   1.544   1_455  S
C607        C614   1.546       .  S
C609       C1166   1.534   1_565  S
C609        C612   1.375       .  D
C609        C938   1.487       .  S
C610        C613   1.378       .  D
C610        C970   1.491       .  S
C611        C614   1.378       .  D
C611        C954   1.490       .  S
C612       C1168   1.545       .  S
C612        C922   1.484       .  S
C613        C890   1.478       .  S
C614        C909   1.479       .  S
C615        H616   1.111       .  S
C615        C621   1.550       .  S
C615        C620   1.546       .  S
C615        C619   1.554       .  S
C617        H618   1.113       .  S
C617        C623   1.523       .  S
C617        C622   1.514       .  S
C617        C624   1.523       .  S
C619        C622   1.369       .  D
C619        C893   1.479       .  S
C620        C623   1.374       .  D
C620        C906   1.483       .  S
C621        C624   1.374       .  D
C621        C925   1.489       .  S
C622        C874   1.468       .  S
C623        C858   1.467       .  S
C624        C842   1.467       .  S
C625        H626   1.104       .  S
C625        C631   1.534       .  S
C625        C630   1.536       .  S
C625        C629   1.526       .  S
C627        H628   1.111       .  S
C627        C633   1.541       .  S
C627        C632   1.544       .  S
C627        C634   1.544       .  S
C629        C632   1.375       .  D
C629        C765   1.486       .  S
C630        C633   1.376       .  D
C630        C781   1.488       .  S
C631        C634   1.379       .  D
C631        C746   1.497       .  S
C632        C810   1.478       .  S
C633        C794   1.482       .  S
C634        C826   1.474       .  S
C635        H636   1.111       .  S
C635       C1202   1.550       .  S
C635        C640   1.555   1_545  S
C637        H638   1.107   1_565  S
C637        C643   1.523       .  S
C637       C1205   1.524   1_565  S
C639        C642   1.376       .  D
C639        C797   1.482       .  S
C640        C643   1.377       .  D
C640        C829   1.473       .  S
C641       C1196   1.549       .  S
C641        C644   1.373       .  D
C641        C813   1.479       .  S
C642        C730   1.484       .  S
C643        C714   1.491       .  S
C644       C1198   1.517       .  S
C644        C701   1.474       .  S
Zn645       O649   1.966       .  S
Zn645       O650   2.027       .  S
Zn645       O654   2.039       .  S
Zn645       O661   2.031       .  S
Zn646       O649   1.950       .  S
Zn646       O651   2.016       .  S
Zn646       O653   2.000       .  S
Zn646       O657   1.997       .  S
Zn647       O649   1.920       .  S
Zn647       O652   1.965       .  S
Zn647       O655   1.962       .  S
Zn647       O658   1.954       .  S
Zn648       O649   1.951       .  S
Zn648       O656   2.035       .  S
Zn648       O659   1.999       .  S
Zn648       O660   1.974       .  S
O650        C662   1.275       .  A
O651        C663   1.273       .  A
O652        C664   1.267       .  A
O653        C662   1.271       .  A
O654        C664   1.275       .  A
O655        C663   1.266       .  A
O656        C665   1.273       .  A
O657        C666   1.271       .  A
O658        C665   1.264       .  A
O659        C666   1.271       .  A
O660        C667   1.269       .  A
O661        C667   1.276       .  A
C662       C1018   1.469       .  S
C663        C733   1.456       .  S
C664        C698   1.459       .  S
C665        C717   1.461       .  S
C666       C1005   1.461       .  S
C667        C989   1.462       .  S
Zn668       O673   2.027       .  S
Zn668      O1799   2.002   1_554  S
Zn668       O684   1.992   1_554  S
Zn669       O672   1.939       .  S
Zn669      O1796   2.007       .  S
Zn669       O680   1.993       .  S
Zn670      O1794   1.947       .  S
Zn670       O678   2.016       .  S
Zn670       O681   1.993   1_554  S
Zn671       O672   1.962       .  S
Zn671      O1801   2.016   1_554  S
Zn671       O682   2.018       .  S
O672      Zn1792   1.947       .  S
O673        C685   1.274       .  A
O674      Zn1791   2.008   1_455  S
O674        C686   1.272       .  A
O675        C687   1.271       .  A
O676        C685   1.269       .  A
O677      Zn1790   2.008   1_456  S
O677        C687   1.271       .  A
O678        C686   1.273       .  A
O679      Zn1793   2.013   1_456  S
O679        C688   1.273       .  A
O680        C689   1.271       .  A
O681        C688   1.270       .  A
O682        C689   1.273       .  A
O683        C690   1.275       .  A
O684        C690   1.271       .  A
C685        C749   1.467       .  S
C686        C762   1.466       .  S
C687        C877   1.467       .  S
C688        C861   1.462       .  S
C689        C778   1.464       .  S
C690        C845   1.465       .  S
C691        S697   1.700       .  A
C691        C696   1.388       .  A
C691        C692   1.400       .  A
C692        C693   1.399       .  A
C692        H703   1.083       .  S
C693        C702   1.370       .  A
C693        C694   1.388       .  A
C694        S700   1.697       .  A
C694        C695   1.398       .  A
C695        C696   1.398       .  A
C695        H704   1.083       .  S
C696        C699   1.369       .  A
S697        C698   1.722       .  A
C698        C699   1.381       .  A
C699        H705   1.083       .  S
S700        C701   1.722       .  A
C701        C702   1.384       .  A
C702        H706   1.083       .  S
C707        S713   1.709       .  A
C707        C712   1.382       .  A
C707        C708   1.399       .  A
C708        C709   1.403       .  A
C708        H719   1.083       .  S
C709        C718   1.362       .  A
C709        C710   1.387       .  A
C710        S716   1.709       .  A
C710        C711   1.395       .  A
C711        C712   1.400       .  A
C711        H720   1.083       .  S
C712        C715   1.357       .  A
S713        C714   1.727       .  A
C714        C715   1.387       .  A
C715       H1843   1.074       .  S
S716        C717   1.718       .  A
C717        C718   1.386       .  A
C718        H722   1.083       .  S
H721       C1837   1.075       .  S
C723        S729   1.688       .  A
C723        C728   1.385       .  A
C723        C724   1.395       .  A
C724        C725   1.394       .  A
C724        H735   1.083       .  S
C725        C734   1.365       .  A
C725        C726   1.388       .  A
C726        S732   1.698       .  A
C726        C727   1.399       .  A
C727        C728   1.398       .  A
C727        H736   1.083       .  S
C728        C731   1.368       .  A
S729        C730   1.724       .  A
C730        C731   1.387       .  A
C731       H1859   1.079       .  S
S732        C733   1.722       .  A
C733        C734   1.379       .  A
C734        H738   1.083       .  S
H737       C1853   1.081       .  S
C739        S745   1.702       .  A
C739        C744   1.382       .  A
C739        C740   1.399       .  A
C740        C741   1.402       .  A
C740        H751   1.083       .  S
C741        C750   1.365       .  A
C741        C742   1.387       .  A
C742        S748   1.708       .  A
C742        C743   1.398       .  A
C743        C744   1.401       .  A
C743        H752   1.083       .  S
C744        C747   1.364       .  A
S745        C746   1.729       .  A
C746        C747   1.390       .  A
C747        H753   1.077       .  S
S748        C749   1.721       .  A
C749        C750   1.386       .  A
C750        H754   1.083       .  S
C755        S761   1.707       .  A
C755        C760   1.387       .  A
C755        C756   1.399       .  A
C756        C757   1.401       .  A
C756        H767   1.083       .  S
C757        C766   1.366       .  A
C757        C758   1.386       .  A
C758        S764   1.707       .  A
C758        C759   1.400       .  A
C759        C760   1.402       .  A
C759        H768   1.083       .  S
C760        C763   1.368       .  A
S761        C762   1.721       .  A
C762        C763   1.385       .  A
C763        H769   1.083       .  S
S764        C765   1.726       .  A
C765        C766   1.387       .  A
C766        H770   1.083       .  S
C771        S777   1.707       .  A
C771        C776   1.387       .  A
C771        C772   1.399       .  A
C772        C773   1.401       .  A
C772        H783   1.083       .  S
C773        C782   1.364       .  A
C773        C774   1.384       .  A
C774        S780   1.702       .  A
C774        C775   1.397       .  A
C775        C776   1.400       .  A
C775        H784   1.083       .  S
C776        C779   1.364       .  A
S777        C778   1.721       .  A
C778        C779   1.384       .  A
C779        H785   1.083       .  S
S780        C781   1.726       .  A
C781        C782   1.388       .  A
C782        H786   1.077       .  S
C787        S793   1.710       .  A
C787        C792   1.387       .  A
C787        C788   1.405       .  A
C788        C789   1.405       .  A
C788        H799   1.083       .  S
C789        C798   1.377       .  A
C789        C790   1.387       .  A
C790        S796   1.710       .  A
C790        C791   1.405       .  A
C791        C792   1.405       .  A
C791        H800   1.083       .  S
C792        C795   1.377       .  A
S793        C794   1.723       .  A
C794        C795   1.387       .  A
C795        H801   1.083       .  S
S796        C797   1.724       .  A
C797        C798   1.387       .  A
C798        H802   1.083       .  S
C803        S809   1.711       .  A
C803        C808   1.387       .  A
C803        C804   1.401       .  A
C804        C805   1.403       .  A
C804        H815   1.083       .  S
C805        C814   1.367       .  A
C805        C806   1.386       .  A
C806        S812   1.711       .  A
C806        C807   1.401       .  A
C807        C808   1.403       .  A
C807        H816   1.083       .  S
C808        C811   1.368       .  A
S809        C810   1.720       .  A
C810        C811   1.387       .  A
C811        H817   1.083       .  S
S812        C813   1.720       .  A
C813        C814   1.388       .  A
C814        H818   1.083       .  S
C819        S825   1.707       .  A
C819        C824   1.388       .  A
C819        C820   1.403       .  A
C820        C821   1.403       .  A
C820        H831   1.083       .  S
C821        C830   1.374       .  A
C821        C822   1.388       .  A
C822        S828   1.706       .  A
C822        C823   1.402       .  A
C823        C824   1.402       .  A
C823        H832   1.083       .  S
C824        C827   1.373       .  A
S825        C826   1.722       .  A
C826        C827   1.385       .  A
C827        H833   1.083       .  S
S828        C829   1.722       .  A
C829        C830   1.385       .  A
C830       H1956   1.083       .  S
H834       C1952   1.083   1_455  S
C835        S841   1.702       .  A
C835        C840   1.388       .  A
C835        C836   1.399       .  A
C836        C837   1.400       .  A
C836        H847   1.083       .  S
C837        C846   1.369       .  A
C837        C838   1.388       .  A
C838        S844   1.702       .  A
C838        C839   1.400       .  A
C839        C840   1.399       .  A
C839        H848   1.083       .  S
C840        C843   1.368       .  A
S841        C842   1.717       .  A
C842        C843   1.382       .  A
C843        H849   1.083       .  S
S844        C845   1.723       .  A
C845        C846   1.384       .  A
C846        H850   1.083       .  S
C851        S857   1.702       .  A
C851        C856   1.388       .  A
C851        C852   1.399       .  A
C852        C853   1.399       .  A
C852        H863   1.083       .  S
C853        C862   1.367       .  A
C853        C854   1.388       .  A
C854        S860   1.702       .  A
C854        C855   1.399       .  A
C855        C856   1.399       .  A
C855        H864   1.083       .  S
C856        C859   1.366       .  A
S857        C858   1.719       .  A
C858        C859   1.381       .  A
C859        H865   1.083       .  S
S860        C861   1.721       .  A
C861        C862   1.383       .  A
C862        H866   1.083       .  S
C867        S873   1.710       .  A
C867        C872   1.387       .  A
C867        C868   1.403       .  A
C868        C869   1.404       .  A
C868        H879   1.083       .  S
C869        C878   1.370       .  A
C869        C870   1.387       .  A
C870        S876   1.701       .  A
C870        C871   1.396       .  A
C871        C872   1.397       .  A
C871        H880   1.083       .  S
C872        C875   1.363       .  A
S873        C874   1.721       .  A
C874        C875   1.378       .  A
C875        H881   1.081       .  S
S876        C877   1.720       .  A
C877        C878   1.388       .  A
C878        H882   1.083       .  S
C883        S889   1.709       .  A
C883        C888   1.387       .  A
C883        C884   1.400       .  A
C884        C885   1.402       .  A
C884        H895   1.083       .  S
C885        C894   1.366       .  A
C885        C886   1.386       .  A
C886        S892   1.715       .  A
C886        C887   1.405       .  A
C887        C888   1.406       .  A
C887        H896   1.083       .  S
C888        C891   1.372       .  A
S889        C890   1.719       .  A
C890        C891   1.389       .  A
C891        H897   1.083       .  S
S892        C893   1.722       .  A
C893        C894   1.387       .  A
C894        H898   1.083       .  S
C899        S905   1.711       .  A
C899        C904   1.386       .  A
C899        C900   1.402       .  A
C900        C901   1.404       .  A
C900        H911   1.083       .  S
C901        C910   1.370       .  A
C901        C902   1.387       .  A
C902        S908   1.711       .  A
C902        C903   1.403       .  A
C903        C904   1.404       .  A
C903        H912   1.083       .  S
C904        C907   1.370       .  A
S905        C906   1.721       .  A
C906        C907   1.389       .  A
C907        H913   1.083       .  S
S908        C909   1.720       .  A
C909        C910   1.387       .  A
C910        H914   1.083       .  S
C915        S921   1.712       .  A
C915        C920   1.387       .  A
C915        C916   1.402       .  A
C916        C917   1.404       .  A
C916        H927   1.083       .  S
C917        C926   1.369       .  A
C917        C918   1.385       .  A
C918        S924   1.716       .  A
C918        C919   1.405       .  A
C919        C920   1.407       .  A
C919        H928   1.083       .  S
C920        C923   1.373       .  A
S921        C922   1.720       .  A
C922        C923   1.390       .  A
C923        H929   1.083       .  S
S924        C925   1.724       .  A
C925        C926   1.390       .  A
C926        H930   1.082       .  S
C931        S937   1.710       .  A
C931        C936   1.384       .  A
C931        C932   1.403       .  A
C932        C933   1.406       .  A
C932        H943   1.083       .  S
C933        C942   1.371       .  A
C933        C934   1.387       .  A
C934        S940   1.704       .  A
C934        C935   1.396       .  A
C935        C936   1.398       .  A
C935        H944   1.083       .  S
C936        C939   1.362       .  A
S937        C938   1.729       .  A
C938        C939   1.383       .  A
C939        H945   1.076       .  S
S940        C941   1.718       .  A
C941        C942   1.388       .  A
C942        H946   1.083       .  S
C947        S953   1.707       .  A
C947        C952   1.385       .  A
C947        C948   1.402       .  A
C948        C949   1.403       .  A
C948        H959   1.083       .  S
C949        C958   1.371       .  A
C949        C950   1.387       .  A
C950        S956   1.708       .  A
C950        C951   1.401       .  A
C951        C952   1.403       .  A
C951        H960   1.083       .  S
C952        C955   1.369       .  A
S953        C954   1.727       .  A
C954        C955   1.389       .  A
C955        H961   1.083       .  S
S956        C957   1.723       .  A
C957        C958   1.387       .  A
C958        H962   1.083       .  S
C963        S969   1.704       .  A
C963        C968   1.383       .  A
C963        C964   1.398       .  A
C964        C965   1.401       .  A
C964        H975   1.083       .  S
C965        C974   1.364       .  A
C965        C966   1.387       .  A
C966        S972   1.709       .  A
C966        C967   1.399       .  A
C967        C968   1.402       .  A
C967        H976   1.083       .  S
C968        C971   1.364       .  A
S969        C970   1.728       .  A
C970        C971   1.388       .  A
C971        H977   1.076   1_455  S
S972        C973   1.721       .  A
C973        C974   1.385       .  A
C974        H978   1.083       .  S
C979        S985   1.700       .  A
C979        C984   1.388       .  A
C979        C980   1.399       .  A
C980        C981   1.399       .  A
C980        H991   1.083       .  S
C981        C990   1.369       .  A
C981        C982   1.388       .  A
C982        S988   1.699       .  A
C982        C983   1.399       .  A
C983        C984   1.398       .  A
C983        H992   1.083       .  S
C984        C987   1.368       .  A
S985        C986   1.718       .  A
C986        C987   1.381       .  A
C987        H993   1.083       .  S
S988        C989   1.722       .  A
C989        C990   1.383       .  A
C990        H994   1.083       .  S
C995       S1001   1.708       .  A
C995       C1000   1.387       .  A
C995        C996   1.399       .  A
C996       C2119   1.401   1_455  A
C996       H1007   1.083   1_455  S
C997       C2118   1.402       .  A
C997       C1006   1.366       .  A
C997        C998   1.388       .  A
C998       S1004   1.702       .  A
C998       C2121   1.395       .  A
C999       C2120   1.396       .  A
C999       C1000   1.398       .  A
C999       H1008   1.083       .  S
C1000      C1003   1.360       .  A
S1001      C1002   1.718       .  A
C1002      C1003   1.378       .  A
C1003      H1009   1.080       .  S
S1004      C1005   1.719       .  A
C1005      C1006   1.385       .  A
C1006      H1010   1.083       .  S
C1011      S1017   1.704       .  A
C1011      C1016   1.387       .  A
C1012      C1013   1.401       .  A
C1012      H1023   1.083       .  S
C1013      C1022   1.371       .  A
C1013      C1014   1.388       .  A
C1014      S1020   1.703       .  A
C1014      C1015   1.400       .  A
C1016      C1019   1.370       .  A
S1017      C1018   1.724       .  A
C1018      C1019   1.385       .  A
C1019      H1025   1.083       .  S
S1020      C1021   1.718       .  A
C1021      C1022   1.382       .  A
C1022      H1026   1.083       .  S
C1027      S1033   1.707       .  A
C1027      C1032   1.387       .  A
C1027      C1028   1.400       .  A
C1028      C1029   1.401       .  A
C1028      H1039   1.083       .  S
C1029      C1038   1.366       .  A
C1029      C1030   1.387       .  A
C1030      S1036   1.710       .  A
C1030      C1031   1.402       .  A
C1031      C1032   1.404       .  A
C1031      H1040   1.083       .  S
C1032      C1035   1.370       .  A
S1033      C1034   1.721       .  A
C1034      C1035   1.386       .  A
C1035      H1041   1.083       .  S
S1036      C1037   1.722       .  A
C1037      C1038   1.383       .  A
C1038      H1042   1.083       .  S
C1043      S1049   1.704   1_655  A
C1043      C1048   1.387   1_655  A
C1043      C2166   1.398       .  A
C1044      C2165   1.398       .  A
C1044      C1045   1.399       .  A
C1044      H1055   1.083       .  S
C1045      C1054   1.365       .  A
C1045      C1046   1.388       .  A
C1046      S1052   1.703       .  A
C1046      C1047   1.398       .  A
C1047      C2170   1.400       .  A
C1047      H1056   1.083       .  S
C1048      C2169   1.399   1_455  A
C1048      C1051   1.364       .  A
S1049      C1050   1.721       .  A
C1050      C1051   1.385       .  A
C1051      H1057   1.083       .  S
S1052      C1053   1.720       .  A
C1053      C1054   1.379       .  A
C1054      H1058   1.083       .  S
C1059      S1065   1.708       .  A
C1059      C1064   1.387       .  A
C1060      C1061   1.401       .  A
C1060      H1071   1.083       .  S
C1061      C1070   1.371       .  A
C1061      C1062   1.388       .  A
C1062      S1068   1.705       .  A
C1062      C1063   1.402       .  A
C1063      H1072   1.083       .  S
C1064      C1067   1.369       .  A
S1065      C1066   1.725       .  A
C1066      C1067   1.384       .  A
C1067      H1073   1.083       .  S
S1068      C1069   1.720       .  A
C1069      C1070   1.383       .  A
C1070      H1074   1.083       .  S
C1075      S1081   1.715       .  A
C1075      C1080   1.386       .  A
C1075      C1076   1.404       .  A
C1076      C1077   1.406       .  A
C1076      H1087   1.083       .  S
C1077      C1086   1.369       .  A
C1077      C1078   1.385       .  A
C1078      S1084   1.712       .  A
C1078      C1079   1.401       .  A
C1079      C1080   1.404       .  A
C1079      H1088   1.083       .  S
C1080      C1083   1.368       .  A
S1081      C1082   1.723       .  A
C1082      C1083   1.389       .  A
C1083      H1089   1.083       .  S
S1084      C1085   1.721       .  A
C1085      C1086   1.392       .  A
C1086      H1090   1.082       .  S
C1091      S1097   1.714       .  A
C1091      C1096   1.385       .  A
C1092      C1093   1.406       .  A
C1092      H1103   1.083       .  S
C1093      C1102   1.373       .  A
C1093      C1094   1.385       .  A
C1094      S1100   1.713       .  A
C1094      C1095   1.405       .  A
C1095      H1104   1.083       .  S
C1096      C1099   1.370       .  A
S1097      C1098   1.724       .  A
C1098      C1099   1.390       .  A
C1099      H1105   1.081       .  S
S1100      C1101   1.724       .  A
C1101      C1102   1.391       .  A
C1102      H1106   1.082       .  S
C1107      S1113   1.717       .  A
C1107      C1112   1.386       .  A
C1107      C2230   1.404       .  A
C1108      C2229   1.405       .  A
C1108      C1109   1.408       .  A
C1108      H1119   1.083       .  S
C1109      C1118   1.371       .  A
C1109      C1110   1.384       .  A
C1110      S1116   1.717       .  A
C1110      C2233   1.405       .  A
C1111      C2232   1.403       .  A
C1111      C1112   1.406   1_655  A
C1111      H1120   1.083       .  S
C1112      C1115   1.369       .  A
S1113      C1114   1.722       .  A
C1114      C1115   1.390       .  A
C1115      H1121   1.083       .  S
S1116      C1117   1.724       .  A
C1117      C1118   1.391       .  A
C1118      H1122   1.079       .  S
C1123      H1124   1.113       .  S
C1123      C1129   1.523       .  S
C1123      C1128   1.528       .  S
C1123      C1127   1.518       .  S
C1125      H1126   1.111       .  S
C1125      C1131   1.547       .  S
C1125      C1130   1.554       .  S
C1125      C1132   1.550       .  S
C1127      C1130   1.371       .  D
C1127      C1614   1.472       .  S
C1128      C1131   1.374       .  D
C1128      C1630   1.468       .  S
C1129      C1132   1.371       .  D
C1129      C1598   1.464       .  S
C1130      C1678   1.480       .  S
C1131      C1662   1.489       .  S
C1132      C1643   1.488       .  S
C1133      H1134   1.111       .  S
C1133      C1139   1.547       .  S
C1133      C1138   1.551       .  S
C1133      C1137   1.550       .  S
C1135      H1136   1.113       .  S
C1135      C1141   1.516       .  S
C1135      C1140   1.525       .  S
C1135      C1142   1.528       .  S
C1137      C1140   1.375       .  D
C1137      C1646   1.489       .  S
C1138      C1141   1.369       .  D
C1138      C1675   1.478       .  S
C1139      C1142   1.375       .  D
C1139      C1659   1.491       .  S
C1140      C1547   1.470       .  S
C1141      C1563   1.467       .  S
C1142      C1582   1.467       .  S
Zn1143     O1147   1.956       .  S
Zn1143     O1148   2.010       .  S
Zn1143     O1152   2.015       .  S
Zn1143     O1159   1.999       .  S
Zn1144     O1147   1.954       .  S
Zn1144     O1149   2.015       .  S
Zn1144     O1151   2.016       .  S
Zn1144     O1155   2.011       .  S
Zn1145     O1147   1.950       .  S
Zn1145     O1150   2.016       .  S
Zn1145     O1153   1.986       .  S
Zn1145     O1156   2.000       .  S
Zn1146     O1147   1.957       .  S
Zn1146     O1154   2.005       .  S
Zn1146     O1157   2.018       .  S
Zn1146     O1158   1.996       .  S
O1148      C1160   1.272       .  A
O1149      C1161   1.273       .  A
O1150      C1162   1.273       .  A
O1151      C1160   1.273       .  A
O1152      C1162   1.273       .  A
O1153      C1161   1.269       .  A
O1154      C1163   1.270       .  A
O1155      C1164   1.272       .  A
O1156      C1163   1.271       .  A
O1157      C1164   1.273       .  A
O1158      C1165   1.271       .  A
O1159      C1165   1.271       .  A
C1160      C1611   1.472       .  S
C1161      C1534   1.459       .  S
C1162      C1518   1.466       .  S
C1163      C1502   1.460       .  S
C1164      C1627   1.468       .  S
C1165      C1595   1.461       .  S
C1166      H1167   1.108       .  S
C1166      C1172   1.529       .  S
C1166      C1732   1.533   1_545  S
C1168      H1169   1.111       .  S
C1168      C1735   1.544       .  S
C1168      C1175   1.545   1_565  S
C1170      C1173   1.376       .  D
C1170      C1499   1.482       .  S
C1171      C1727   1.529       .  S
C1171      C1174   1.373       .  D
C1171      C1531   1.480       .  S
C1172      C1175   1.376       .  D
C1172      C1515   1.482       .  S
C1173      C1483   1.486       .  S
C1174      C1729   1.543       .  S
C1174      C1451   1.481       .  S
C1175      C1470   1.485       .  S
C1176      H1177   1.110       .  S
C1176      C1182   1.550       .  S
C1176      C1181   1.551       .  S
C1176      C1180   1.552       .  S
C1178      H1179   1.113       .  S
C1178      C1184   1.520       .  S
C1178      C1183   1.514       .  S
C1178      C1185   1.521       .  S
C1180      C1183   1.370       .  D
C1180      C1454   1.484       .  S
C1181      C1184   1.375       .  D
C1181      C1467   1.486       .  S
C1182      C1185   1.375       .  D
C1182      C1486   1.491       .  S
C1183      C1435   1.465       .  S
C1184      C1419   1.469       .  S
C1185      C1403   1.464       .  S
C1186      H1187   1.106       .  S
C1186      C1192   1.532       .  S
C1186      C1191   1.533       .  S
C1186      C1190   1.527       .  S
C1188      H1189   1.111       .  S
C1188      C1194   1.547       .  S
C1188      C1193   1.549       .  S
C1188      C1195   1.544       .  S
C1190      C1193   1.375       .  D
C1190      C1326   1.484       .  S
C1191      C1194   1.378       .  D
C1191      C1342   1.493       .  S
C1192      C1195   1.372       .  D
C1192      C1307   1.486       .  S
C1193      C1371   1.480       .  S
C1194      C1355   1.479       .  S
C1195      C1387   1.479       .  S
C1196      H1197   1.111       .  S
C1196      C1201   1.552   1_455  S
C1196      C1761   1.548   1_455  S
C1198      H1199   1.108       .  S
C1198      C1204   1.524   1_455  S
C1198      C1764   1.526   1_455  S
C1200      C1757   1.546       .  S
C1200      C1203   1.368       .  D
C1200      C1358   1.482       .  S
C1201      C1204   1.374       .  D
C1201      C1390   1.476       .  S
C1202      C1205   1.374       .  D
C1202      C1374   1.478       .  S
C1203      C1759   1.524   1_545  S
C1203      C1291   1.472       .  S
C1204      C1275   1.483       .  S
C1205      C1262   1.482       .  S
Zn1206     O1210   1.969       .  S
Zn1206     O1211   2.040       .  S
Zn1206     O1215   2.053       .  S
Zn1206     O1222   2.046       .  S
Zn1207     O1210   1.953       .  S
Zn1207     O1212   2.020       .  S
Zn1207     O1214   1.987       .  S
Zn1207     O1218   2.012       .  S
Zn1208     O1210   1.921       .  S
Zn1208     O1213   1.971       .  S
Zn1208     O1216   1.958       .  S
Zn1208     O1219   1.946       .  S
Zn1209     O1210   1.948       .  S
Zn1209     O1217   2.029       .  S
Zn1209     O1220   1.997       .  S
Zn1209     O1221   1.984       .  S
O1211      C1223   1.277       .  A
O1212      C1224   1.273       .  A
O1213      C1225   1.267       .  A
O1214      C1223   1.270       .  A
O1215      C1225   1.278       .  A
O1216      C1224   1.264       .  A
O1217      C1226   1.272       .  A
O1218      C1227   1.272       .  A
O1219      C1226   1.264       .  A
O1220      C1227   1.272       .  A
O1221      C1228   1.271       .  A
O1222      C1228   1.277       .  A
C1223      C1579   1.470       .  S
C1224      C1294   1.454       .  S
C1225      C1259   1.466       .  S
C1226      C1278   1.457       .  S
C1227      C1566   1.467       .  S
C1228      C1550   1.470       .  S
Zn1229     O1794   1.953   1_655  S
Zn1229     O1234   2.015       .  S
Zn1229     O1245   1.989   1_554  S
Zn1230     O1233   1.933       .  S
Zn1230     O1798   1.981       .  S
Zn1230     O1241   1.975   1_565  S
Zn1231     O1797   1.999   1_544  S
Zn1231     O1239   2.027       .  S
Zn1231     O1242   2.014   1_554  S
Zn1232     O1233   1.964   1_545  S
Zn1232     O1243   2.038       .  S
Zn1232     O1805   2.026   1_544  S
O1233     Zn1790   1.958       .  S
O1234      C1246   1.272       .  A
O1235      C1247   1.269       .  A
O1236     Zn1792   1.998   1_556  S
O1236      C1248   1.271       .  A
O1237     Zn1791   1.989       .  S
O1237      C1246   1.270       .  A
O1238      C1248   1.270       .  A
O1239      C1247   1.274       .  A
O1240      C1249   1.275       .  A
O1241      C1250   1.268       .  A
O1242      C1249   1.273       .  A
O1243      C1250   1.274       .  A
O1244     Zn1793   2.018   1_556  S
O1244      C1251   1.274       .  A
O1245      C1251   1.270       .  A
C1246      C1310   1.462       .  S
C1247      C1323   1.464       .  S
C1248      C1438   1.462       .  S
C1249      C1422   1.469       .  S
C1250      C1339   1.468       .  S
C1251      C1406   1.464       .  S
C1252      S1258   1.702       .  A
C1252      C1257   1.388       .  A
C1252      C1253   1.402       .  A
C1253      C1254   1.401       .  A
C1253      H1264   1.083       .  S
C1254      C1263   1.372       .  A
C1254      C1255   1.386       .  A
C1255      S1261   1.696       .  A
C1255      C1256   1.399       .  A
C1256      C1257   1.398       .  A
C1256      H1265   1.083       .  S
C1257      C1260   1.370       .  A
S1258      C1259   1.725       .  A
C1259      C1260   1.383       .  A
C1260      H1266   1.083       .  S
S1261      C1262   1.725       .  A
C1262      C1263   1.386       .  A
C1263      H1267   1.079       .  S
C1268      S1274   1.710       .  A
C1268      C1273   1.383       .  A
C1268      C1269   1.398       .  A
C1269      C1270   1.403       .  A
C1269      H1280   1.083       .  S
C1270      C1279   1.360       .  A
C1270      C1271   1.387       .  A
C1271      S1277   1.707       .  A
C1271      C1272   1.392       .  A
C1272      C1273   1.398       .  A
C1272      H1281   1.083       .  S
C1273      C1276   1.353       .  A
S1274      C1275   1.726       .  A
C1275      C1276   1.383       .  A
S1277      C1278   1.715       .  A
C1278      C1279   1.386       .  A
C1279      H1283   1.084       .  S
C1284      S1290   1.691       .  A
C1284      C1289   1.387       .  A
C1284      C1285   1.395       .  A
C1285      C1286   1.394       .  A
C1285      H1296   1.083       .  S
C1286      C1295   1.364       .  A
C1286      C1287   1.389       .  A
C1287      S1293   1.699       .  A
C1287      C1288   1.399       .  A
C1288      C1289   1.398       .  A
C1288      H1297   1.083       .  S
C1289      C1292   1.367       .  A
S1290      C1291   1.718       .  A
C1291      C1292   1.383       .  A
S1293      C1294   1.722       .  A
C1294      C1295   1.378       .  A
C1295      H1299   1.083       .  S
C1300      S1306   1.705       .  A
C1300      C1305   1.384       .  A
C1300      C1301   1.400       .  A
C1301      C1302   1.402       .  A
C1301      H1312   1.083       .  S
C1302      C1311   1.365       .  A
C1302      C1303   1.388       .  A
C1303      S1309   1.705       .  A
C1303      C1304   1.396       .  A
C1304      C1305   1.399       .  A
C1304      H1313   1.083       .  S
C1305      C1308   1.361       .  A
S1306      C1307   1.727       .  A
C1307      C1308   1.383       .  A
C1308      H1314   1.075       .  S
S1309      C1310   1.719       .  A
C1310      C1311   1.385       .  A
C1311      H1315   1.083       .  S
C1316      S1322   1.703       .  A
C1316      C1321   1.388       .  A
C1316      C1317   1.400       .  A
C1317      C1318   1.400       .  A
C1317      H1328   1.083       .  S
C1318      C1327   1.369       .  A
C1318      C1319   1.385       .  A
C1319      S1325   1.700       .  A
C1319      C1320   1.400       .  A
C1320      C1321   1.400       .  A
C1320      H1329   1.083       .  S
C1321      C1324   1.369       .  A
S1322      C1323   1.722       .  A
C1323      C1324   1.384       .  A
C1324      H1330   1.083       .  S
S1325      C1326   1.726       .  A
C1326      C1327   1.386       .  A
C1327      H1331   1.077       .  S
C1332      S1338   1.709       .  A
C1332      C1337   1.387       .  A
C1332      C1333   1.398       .  A
C1333      C1334   1.402       .  A
C1333      H1344   1.083       .  S
C1334      C1343   1.362       .  A
C1334      C1335   1.383       .  A
C1335      S1341   1.706       .  A
C1335      C1336   1.399       .  A
C1336      C1337   1.403       .  A
C1336      H1345   1.083       .  S
C1337      C1340   1.364       .  A
S1338      C1339   1.721       .  A
C1339      C1340   1.387       .  A
C1340      H1346   1.083       .  S
S1341      C1342   1.728       .  A
C1342      C1343   1.387       .  A
C1343      H1347   1.075       .  S
C1348      S1354   1.709       .  A
C1348      C1353   1.388       .  A
C1348      C1349   1.404       .  A
C1349      C1350   1.404       .  A
C1349      H1360   1.083       .  S
C1350      C1359   1.376       .  A
C1350      C1351   1.387       .  A
C1351      S1357   1.708       .  A
C1351      C1352   1.405       .  A
C1352      C1353   1.405       .  A
C1352      H1361   1.083       .  S
C1353      C1356   1.376       .  A
S1354      C1355   1.724       .  A
C1355      C1356   1.386       .  A
C1356      H1362   1.083       .  S
S1357      C1358   1.726       .  A
C1358      C1359   1.386       .  A
C1359      H1363   1.083   1_655  S
C1364      S1370   1.712       .  A
C1364      C1369   1.387       .  A
C1364      C1365   1.405       .  A
C1365      C1366   1.405       .  A
C1365      H1376   1.083       .  S
C1366      C1375   1.374       .  A
C1366      C1367   1.387       .  A
C1367      S1373   1.712       .  A
C1367      C1368   1.404       .  A
C1368      C1369   1.405       .  A
C1368      H1377   1.083       .  S
C1369      C1372   1.374       .  A
S1370      C1371   1.722       .  A
C1371      C1372   1.386       .  A
C1372      H1378   1.083       .  S
S1373      C1374   1.723       .  A
C1374      C1375   1.386       .  A
C1375      H1379   1.083   1_545  S
C1380      S1386   1.708       .  A
C1380      C1385   1.387       .  A
C1380      C1381   1.405       .  A
C1381      C1382   1.405       .  A
C1381      H1392   1.083       .  S
C1382      C1391   1.376       .  A
C1382      C1383   1.387       .  A
C1383      S1389   1.706       .  A
C1383      C1384   1.403       .  A
C1384      C1385   1.402       .  A
C1384      H1393   1.083       .  S
C1385      C1388   1.375       .  A
S1386      C1387   1.724       .  A
C1387      C1388   1.385       .  A
C1388      H1394   1.083       .  S
S1389      C1390   1.721       .  A
C1390      C1391   1.387       .  A
C1396      S1402   1.701       .  A
C1396      C1401   1.388       .  A
C1396      C1397   1.398       .  A
C1397      C1398   1.399       .  A
C1397      H1408   1.083       .  S
C1398      C1407   1.367       .  A
C1398      C1399   1.388       .  A
C1399      S1405   1.701       .  A
C1399      C1400   1.399       .  A
C1400      C1401   1.398       .  A
C1400      H1409   1.083       .  S
C1401      C1404   1.367       .  A
S1402      C1403   1.718       .  A
C1403      C1404   1.380       .  A
C1404      H1410   1.083       .  S
S1405      C1406   1.722       .  A
C1406      C1407   1.383       .  A
C1407      H1411   1.083       .  S
C1412      S1418   1.704       .  A
C1412      C1417   1.388       .  A
C1412      C1413   1.399       .  A
C1413      C1414   1.400       .  A
C1413      H1424   1.083       .  S
C1414      C1423   1.368       .  A
C1414      C1415   1.387       .  A
C1415      S1421   1.707       .  A
C1415      C1416   1.402       .  A
C1416      C1417   1.402       .  A
C1416      H1425   1.083       .  S
C1417      C1420   1.370       .  A
S1418      C1419   1.718       .  A
C1419      C1420   1.383       .  A
C1420      H1426   1.083       .  S
S1421      C1422   1.724       .  A
C1422      C1423   1.384       .  A
C1423      H1427   1.083       .  S
C1428      S1434   1.709       .  A
C1428      C1433   1.388       .  A
C1428      C1429   1.401       .  A
C1429      C1430   1.403       .  A
C1429      H1440   1.083       .  S
C1430      C1439   1.367       .  A
C1430      C1431   1.388       .  A
C1431      S1437   1.700       .  A
C1431      C1432   1.394       .  A
C1432      C1433   1.396       .  A
C1432      H1441   1.083       .  S
C1433      C1436   1.360       .  A
S1434      C1435   1.720       .  A
C1435      C1436   1.377       .  A
C1436      H1442   1.081       .  S
S1437      C1438   1.718       .  A
C1438      C1439   1.386       .  A
C1439      H1443   1.083       .  S
C1444      S1450   1.710       .  A
C1444      C1449   1.387       .  A
C1444      C1445   1.399       .  A
C1445      C1446   1.402       .  A
C1445      H1456   1.083       .  S
C1446      C1455   1.364       .  A
C1446      C1447   1.385       .  A
C1447      S1453   1.717       .  A
C1447      C1448   1.404       .  A
C1448      C1449   1.407       .  A
C1448      H1457   1.083       .  S
C1449      C1452   1.370       .  A
S1450      C1451   1.719       .  A
C1451      C1452   1.390       .  A
C1452      H1458   1.083       .  S
S1453      C1454   1.722       .  A
C1454      C1455   1.388       .  A
C1455      H1459   1.083       .  S
C1460      S1466   1.711       .  A
C1460      C1465   1.385       .  A
C1460      C1461   1.402       .  A
C1461      C1462   1.404       .  A
C1461      H1472   1.083       .  S
C1462      C1471   1.370       .  A
C1462      C1463   1.386       .  A
C1463      S1469   1.712       .  A
C1463      C1464   1.403       .  A
C1464      C1465   1.405       .  A
C1464      H1473   1.083       .  S
C1465      C1468   1.369       .  A
S1466      C1467   1.722       .  A
C1467      C1468   1.390       .  A
C1468      H1474   1.082       .  S
S1469      C1470   1.722       .  A
C1470      C1471   1.389       .  A
C1471      H1475   1.083       .  S
C1476      S1482   1.710       .  A
C1476      C1481   1.386       .  A
C1476      C1477   1.400       .  A
C1477      C1478   1.403       .  A
C1477      H1488   1.083       .  S
C1478      C1487   1.367       .  A
C1478      C1479   1.385       .  A
C1479      S1485   1.716       .  A
C1479      C1480   1.406       .  A
C1480      C1481   1.408       .  A
C1480      H1489   1.083       .  S
C1481      C1484   1.373       .  A
S1482      C1483   1.720       .  A
C1483      C1484   1.392       .  A
C1484      H1490   1.083       .  S
S1485      C1486   1.725       .  A
C1486      C1487   1.390       .  A
C1487      H1491   1.081       .  S
C1492      S1498   1.706       .  A
C1492      C1497   1.384       .  A
C1492      C1493   1.400       .  A
C1493      C1494   1.402       .  A
C1493      H1504   1.083       .  S
C1494      C1503   1.366       .  A
C1494      C1495   1.388       .  A
C1495      S1501   1.704       .  A
C1495      C1496   1.396       .  A
C1496      C1497   1.398       .  A
C1496      H1505   1.083       .  S
C1497      C1500   1.360       .  A
S1498      C1499   1.727       .  A
C1499      C1500   1.383       .  A
C1500      H1506   1.076       .  S
S1501      C1502   1.718       .  A
C1502      C1503   1.384       .  A
C1503      H1507   1.083       .  S
C1508      S1514   1.707       .  A
C1508      C1513   1.386       .  A
C1508      C1509   1.400       .  A
C1509      C1510   1.402       .  A
C1509      H1520   1.083       .  S
C1510      C1519   1.368       .  A
C1510      C1511   1.387       .  A
C1511      S1517   1.707       .  A
C1511      C1512   1.400       .  A
C1512      C1513   1.402       .  A
C1512      H1521   1.083       .  S
C1513      C1516   1.367       .  A
S1514      C1515   1.725       .  A
C1515      C1516   1.386       .  A
C1516      H1522   1.083       .  S
S1517      C1518   1.721       .  A
C1518      C1519   1.385       .  A
C1519      H1523   1.083       .  S
C1524      S1530   1.708       .  A
C1524      C1529   1.385       .  A
C1524      C1525   1.402       .  A
C1525      C1526   1.404       .  A
C1525      H1536   1.083       .  S
C1526      C1535   1.367       .  A
C1526      C1527   1.388       .  A
C1527      S1533   1.701       .  A
C1527      C1528   1.394       .  A
C1528      C1529   1.396       .  A
C1528      H1537   1.083       .  S
C1529      C1532   1.359       .  A
S1530      C1531   1.728       .  A
C1531      C1532   1.380       .  A
C1532      H1538   1.074       .  S
S1533      C1534   1.715       .  A
C1534      C1535   1.387       .  A
C1535      H1539   1.083       .  S
C1540      S1546   1.706       .  A
C1540      C1545   1.388       .  A
C1540      C1541   1.403       .  A
C1541      C1542   1.403       .  A
C1541      H1552   1.083       .  S
C1542      C1551   1.374       .  A
C1542      C1543   1.388       .  A
C1543      S1549   1.699       .  A
C1543      C1544   1.399       .  A
C1544      C1545   1.398       .  A
C1544      H1553   1.083       .  S
C1545      C1548   1.369       .  A
S1546      C1547   1.721       .  A
C1547      C1548   1.380       .  A
C1548      H1554   1.083       .  S
S1549      C1550   1.723       .  A
C1550      C1551   1.387       .  A
C1551      H1555   1.083       .  S
C1556      S1562   1.708       .  A
C1556      C1561   1.388       .  A
C1556      C1557   1.399       .  A
C1557      H1568   1.083       .  S
C1558      C1567   1.365       .  A
C1558      C1559   1.387       .  A
C1559      S1565   1.707       .  A
C1560      C1561   1.400       .  A
C1560      H1569   1.083       .  S
C1561      C1564   1.364       .  A
S1562      C1563   1.718       .  A
C1563      C1564   1.380       .  A
C1564      H1570   1.082       .  S
S1565      C1566   1.722       .  A
C1566      C1567   1.385       .  A
C1567      H1571   1.083       .  S
C1572      S1578   1.702       .  A
C1572      C1577   1.387       .  A
C1572      C2134   1.402   1_545  A
C1573      C2133   1.400       .  A
C1573      C1574   1.400       .  A
C1573      H1584   1.083       .  S
C1574      C1583   1.368       .  A
C1574      C1575   1.388       .  A
C1575      S1581   1.703       .  A
C1575      C1576   1.399       .  A
C1576      C2138   1.400       .  A
C1576      H2146   1.083       .  S
C1577      C2137   1.400   1_545  A
C1577      C1580   1.372       .  A
S1578      C1579   1.725       .  A
C1579      C1580   1.385       .  A
C1580      H1586   1.083       .  S
S1581      C1582   1.718       .  A
C1582      C1583   1.382       .  A
C1583      H1587   1.083       .  S
H1585      C2137   1.083       .  S
C1588      S1594   1.700       .  A
C1588      C1593   1.388       .  A
C1588      C1589   1.395       .  A
C1589      C1590   1.397       .  A
C1589      H1600   1.083       .  S
C1590      C1599   1.361       .  A
C1590      C1591   1.388       .  A
C1591      S1597   1.708       .  A
C1591      C1592   1.400       .  A
C1592      C1593   1.402       .  A
C1592      H1601   1.083       .  S
C1593      C1596   1.367       .  A
S1594      C1595   1.719       .  A
C1595      C1596   1.385       .  A
C1596      H1602   1.083       .  S
S1597      C1598   1.719       .  A
C1598      C1599   1.378       .  A
C1599      H1603   1.082       .  S
C1604      S1610   1.705       .  A
C1604      C1609   1.387       .  A
C1605      C1606   1.402       .  A
C1605      H1616   1.083       .  S
C1606      C1615   1.371       .  A
C1606      C1607   1.388       .  A
C1607      S1613   1.707       .  A
C1607      C1608   1.402       .  A
C1608      H1617   1.083       .  S
C1609      C1612   1.371       .  A
S1610      C1611   1.723       .  A
C1611      C1612   1.388       .  A
C1612      H1618   1.083       .  S
S1613      C1614   1.720       .  A
C1614      C1615   1.382       .  A
C1615      H1619   1.083       .  S
C1620      S1626   1.704       .  A
C1620      C1625   1.387       .  A
C1620      C2182   1.401       .  A
C1621      C2181   1.402   1_545  A
C1621      C1622   1.402       .  A
C1621      H1632   1.083       .  S
C1622      C1631   1.370       .  A
C1622      C1623   1.388       .  A
C1623      S1629   1.702       .  A
C1623      C1624   1.398       .  A
C1624      C2186   1.399   1_545  A
C1624      H1633   1.083       .  S
C1625      C2185   1.402       .  A
C1625      C1628   1.371       .  A
S1626      C1627   1.722       .  A
C1627      C1628   1.386       .  A
C1628      H1634   1.083       .  S
S1629      C1630   1.717       .  A
C1630      C1631   1.384       .  A
C1631      H1635   1.083       .  S
C1636      S1642   1.715       .  A
C1636      C1641   1.386       .  A
C1636      C1637   1.405       .  A
C1637      C1638   1.407       .  A
C1637      H1648   1.083       .  S
C1638      C1647   1.372       .  A
C1638      C1639   1.386       .  A
C1639      S1645   1.713       .  A
C1639      C1640   1.403       .  A
C1640      C1641   1.406       .  A
C1640      H1649   1.083       .  S
C1641      C1644   1.371       .  A
S1642      C1643   1.722       .  A
C1643      C1644   1.390       .  A
C1644      H1650   1.083       .  S
S1645      C1646   1.722       .  A
C1646      C1647   1.391       .  A
C1647      H1651   1.082       .  S
C1652      S1658   1.713       .  A
C1652      C1657   1.386       .  A
C1652      C2214   1.405       .  A
C1653      C2213   1.406       .  A
C1653      C1654   1.407   1_565  A
C1653      H1664   1.083       .  S
C1654      C1663   1.373       .  A
C1654      C1655   1.386       .  A
C1655      S1661   1.712       .  A
C1655      C1656   1.403       .  A
C1656      C2218   1.405   1_545  A
C1656      H1665   1.083       .  S
C1657      C2217   1.406       .  A
C1657      C1660   1.373       .  A
S1658      C1659   1.723       .  A
C1659      C1660   1.392       .  A
C1660      H1666   1.082       .  S
S1661      C1662   1.722       .  A
C1662      C1663   1.391       .  A
C1663      H1667   1.082       .  S
C1668      S1674   1.714       .  A
C1668      C1673   1.386       .  A
C1669      C1670   1.406   1_455  A
C1669      H1680   1.083       .  S
C1670      C1679   1.371       .  A
C1670      C1671   1.386       .  A
C1671      S1677   1.710       .  A
C1672      C1673   1.403       .  A
C1672      H1681   1.083       .  S
C1673      C1676   1.367       .  A
S1674      C1675   1.721       .  A
C1675      C1676   1.386       .  A
C1676      H1682   1.083       .  S
S1677      C1678   1.719       .  A
C1678      C1679   1.389       .  A
C1679      H1683   1.082       .  S
C1684      H1685   1.113       .  S
C1684      C1690   1.523       .  S
C1684      C1689   1.526       .  S
C1684      C1688   1.517       .  S
C1686      H1687   1.111       .  S
C1686      C1692   1.549       .  S
C1686      C1691   1.554       .  S
C1686      C1693   1.549       .  S
C1688      C1691   1.372       .  D
C1688      C2175   1.462       .  S
C1689      C1692   1.375       .  D
C1689      C2191   1.471       .  S
C1690      C1693   1.375       .  D
C1690      C2159   1.475       .  S
C1691      C2239   1.489       .  S
C1692      C2223   1.490       .  S
C1693      C2204   1.483       .  S
C1694      H1695   1.111       .  S
C1694      C1700   1.552       .  S
C1694      C1699   1.556       .  S
C1694      C1698   1.550       .  S
C1696      H1697   1.113       .  S
C1696      C1702   1.518       .  S
C1696      C1701   1.523       .  S
C1696      C1703   1.524       .  S
C1698      C1701   1.375       .  D
C1698      C2207   1.487       .  S
C1699      C1702   1.371       .  D
C1699      C2236   1.489       .  S
C1700      C1703   1.374       .  D
C1700      C2220   1.490       .  S
C1701      C2108   1.471       .  S
C1702      C2124   1.466       .  S
C1703      C2143   1.469       .  S
Zn1704     O1708   1.959       .  S
Zn1704     O1709   2.015       .  S
Zn1704     O1713   2.024       .  S
Zn1704     O1720   2.014       .  S
Zn1705     O1708   1.958       .  S
Zn1705     O1710   2.022       .  S
Zn1705     O1712   1.990       .  S
Zn1705     O1716   2.003       .  S
Zn1706     O1708   1.948       .  S
Zn1706     O1711   2.017       .  S
Zn1706     O1714   1.991       .  S
Zn1706     O1717   2.007       .  S
Zn1707     O1708   1.959       .  S
Zn1707     O1715   2.016       .  S
Zn1707     O1718   2.024       .  S
Zn1707     O1719   2.015       .  S
O1709      C1721   1.272       .  A
O1710      C1722   1.273       .  A
O1711      C1723   1.274       .  A
O1712      C1721   1.270       .  A
O1713      C1723   1.274       .  A
O1714      C1722   1.270       .  A
O1715      C1724   1.273       .  A
O1716      C1725   1.271       .  A
O1717      C1724   1.272       .  A
O1718      C1725   1.275       .  A
O1719      C1726   1.272       .  A
O1720      C1726   1.273       .  A
C1721      C2172   1.466       .  S
C1722      C2095   1.465       .  S
C1723      C2079   1.471       .  S
C1724      C2063   1.465       .  S
C1725      C2188   1.468       .  S
C1726      C2156   1.467       .  S
C1727      H1728   1.108       .  S
C1727      C1733   1.530       .  S
C1729      H1730   1.111       .  S
C1729      C1736   1.546       .  S
C1731      C1734   1.375       .  D
C1731      C2060   1.486       .  S
C1732      C1735   1.377       .  D
C1732      C2092   1.489       .  S
C1733      C1736   1.378       .  D
C1733      C2076   1.490       .  S
C1734      C2044   1.484       .  S
C1735      C2012   1.479       .  S
C1736      C2031   1.478       .  S
C1737      H1738   1.111       .  S
C1737      C1743   1.550       .  S
C1737      C1742   1.546       .  S
C1737      C1741   1.553       .  S
C1739      H1740   1.113       .  S
C1739      C1745   1.522       .  S
C1739      C1744   1.515       .  S
C1739      C1746   1.523       .  S
C1741      C1744   1.370       .  D
C1741      C2015   1.479       .  S
C1742      C1745   1.373       .  D
C1742      C2028   1.481       .  S
C1743      C1746   1.374       .  D
C1743      C2047   1.489       .  S
C1744      C1996   1.467       .  S
C1745      C1980   1.466       .  S
C1746      C1964   1.467       .  S
C1747      H1748   1.104       .  S
C1747      C1753   1.534       .  S
C1747      C1752   1.533       .  S
C1747      C1751   1.525       .  S
C1749      H1750   1.111       .  S
C1749      C1755   1.543       .  S
C1749      C1754   1.547       .  S
C1749      C1756   1.545       .  S
C1751      C1754   1.374       .  D
C1751      C1887   1.482       .  S
C1752      C1755   1.374       .  D
C1752      C1903   1.487       .  S
C1753      C1756   1.379       .  D
C1753      C1868   1.496       .  S
C1754      C1932   1.481       .  S
C1755      C1916   1.480       .  S
C1756      C1948   1.476       .  S
C1757      H1758   1.111       .  S
C1757      C1762   1.555   1_545  S
C1759      H1760   1.106   1_565  S
C1759      C1765   1.523       .  S
C1761      C1764   1.372       .  D
C1761      C1919   1.480       .  S
C1762      C1765   1.376       .  D
C1762      C1951   1.475       .  S
C1763      C1766   1.375       .  D
C1763      C1935   1.482       .  S
C1764      C1852   1.480       .  S
C1765      C1836   1.488       .  S
C1766      C1823   1.476       .  S
Zn1767     O1771   1.966       .  S
Zn1767     O1772   2.023       .  S
Zn1767     O1776   2.038       .  S
Zn1767     O1783   2.038       .  S
Zn1768     O1771   1.950       .  S
Zn1768     O1773   2.017       .  S
Zn1768     O1775   1.993       .  S
Zn1768     O1779   1.995       .  S
Zn1769     O1771   1.922       .  S
Zn1769     O1774   1.967       .  S
Zn1769     O1777   1.967       .  S
Zn1769     O1780   1.951       .  S
Zn1770     O1771   1.952       .  S
Zn1770     O1778   2.029       .  S
Zn1770     O1781   2.001       .  S
Zn1770     O1782   1.981       .  S
O1772      C1784   1.275       .  A
O1773      C1785   1.272       .  A
O1774      C1786   1.267       .  A
O1775      C1784   1.271       .  A
O1776      C1786   1.275       .  A
O1777      C1785   1.266       .  A
O1778      C1787   1.272       .  A
O1779      C1788   1.270       .  A
O1780      C1787   1.264       .  A
O1781      C1788   1.272       .  A
O1782      C1789   1.270       .  A
O1783      C1789   1.276       .  A
C1784      C2140   1.465       .  S
C1785      C1855   1.457       .  S
C1786      C1820   1.459       .  S
C1787      C1839   1.459       .  S
C1788      C2127   1.462       .  S
C1789      C2111   1.467       .  S
Zn1790     O1795   2.031       .  S
Zn1790     O1806   1.992   1_554  S
Zn1791     O1794   1.939   1_655  S
Zn1791     O1802   1.994       .  S
Zn1792     O1800   2.010       .  S
Zn1792     O1803   1.992   1_554  S
Zn1793     O1794   1.963   1_655  S
Zn1793     O1804   2.019       .  S
O1795      C1807   1.274       .  A
O1796      C1808   1.272       .  A
O1797      C1809   1.271       .  A
O1798      C1807   1.269       .  A
O1799      C1809   1.270       .  A
O1800      C1808   1.272       .  A
O1801      C1810   1.273       .  A
O1802      C1811   1.271       .  A
O1803      C1810   1.270       .  A
O1804      C1811   1.273       .  A
O1805      C1812   1.275       .  A
O1806      C1812   1.271       .  A
C1807      C1871   1.467       .  S
C1808      C1884   1.464       .  S
C1809      C1999   1.464       .  S
C1810      C1983   1.463       .  S
C1811      C1900   1.465       .  S
C1812      C1967   1.465       .  S
C1813      S1819   1.699       .  A
C1813      C1818   1.388       .  A
C1813      C1814   1.399       .  A
C1814      C1815   1.399       .  A
C1814      H1825   1.083       .  S
C1815      C1824   1.369       .  A
C1815      C1816   1.387       .  A
C1816      S1822   1.697       .  A
C1816      C1817   1.399       .  A
C1817      C1818   1.398       .  A
C1817      H1826   1.083       .  S
C1818      C1821   1.369       .  A
S1819      C1820   1.722       .  A
C1820      C1821   1.382       .  A
C1821      H1827   1.083       .  S
S1822      C1823   1.723       .  A
C1823      C1824   1.384       .  A
C1824      H1828   1.083       .  S
C1829      S1835   1.707       .  A
C1829      C1834   1.383       .  A
C1829      C1830   1.398       .  A
C1830      C1831   1.402       .  A
C1830      H1841   1.083       .  S
C1831      C1840   1.360       .  A
C1831      C1832   1.387       .  A
C1832      S1838   1.708       .  A
C1832      C1833   1.395       .  A
C1833      C1834   1.400       .  A
C1833      H1842   1.083       .  S
C1834      C1837   1.357       .  A
S1835      C1836   1.726       .  A
C1836      C1837   1.386       .  A
S1838      C1839   1.717       .  A
C1839      C1840   1.385       .  A
C1840      H1844   1.083       .  S
C1845      S1851   1.688       .  A
C1845      C1850   1.385       .  A
C1845      C1846   1.395       .  A
C1846      C1847   1.394       .  A
C1846      H1857   1.083       .  S
C1847      C1856   1.365       .  A
C1847      C1848   1.388       .  A
C1848      S1854   1.700       .  A
C1848      C1849   1.401       .  A
C1849      C1850   1.399       .  A
C1849      H1858   1.083       .  S
C1850      C1853   1.370       .  A
S1851      C1852   1.720       .  A
C1852      C1853   1.386       .  A
S1854      C1855   1.722       .  A
C1855      C1856   1.379       .  A
C1856      H1860   1.083       .  S
C1861      S1867   1.703       .  A
C1861      C1866   1.382       .  A
C1861      C1862   1.399       .  A
C1862      C1863   1.402       .  A
C1862      H1873   1.083       .  S
C1863      C1872   1.365       .  A
C1863      C1864   1.387       .  A
C1864      S1870   1.708       .  A
C1864      C1865   1.398       .  A
C1865      C1866   1.401       .  A
C1865      H1874   1.083       .  S
C1866      C1869   1.363       .  A
S1867      C1868   1.729       .  A
C1868      C1869   1.389       .  A
C1869      H1875   1.076       .  S
S1870      C1871   1.720       .  A
C1871      C1872   1.387       .  A
C1872      H1876   1.083       .  S
C1877      S1883   1.706       .  A
C1877      C1882   1.387       .  A
C1877      C1878   1.398       .  A
C1878      C1879   1.400       .  A
C1878      H1889   1.083       .  S
C1879      C1888   1.364       .  A
C1879      C1880   1.386       .  A
C1880      S1886   1.707       .  A
C1880      C1881   1.400       .  A
C1881      C1882   1.402       .  A
C1881      H1890   1.083       .  S
C1882      C1885   1.367       .  A
S1883      C1884   1.720       .  A
C1884      C1885   1.385       .  A
C1885      H1891   1.083       .  S
S1886      C1887   1.726       .  A
C1887      C1888   1.385       .  A
C1888      H1892   1.083       .  S
C1893      S1899   1.708       .  A
C1893      C1898   1.387       .  A
C1893      C1894   1.399       .  A
C1894      C1895   1.401       .  A
C1894      H1905   1.083       .  S
C1895      C1904   1.363       .  A
C1895      C1896   1.384       .  A
C1896      S1902   1.704       .  A
C1896      C1897   1.398       .  A
C1897      C1898   1.401       .  A
C1897      H1906   1.083       .  S
C1898      C1901   1.365       .  A
S1899      C1900   1.721       .  A
C1900      C1901   1.385       .  A
C1901      H1907   1.083       .  S
S1902      C1903   1.726       .  A
C1903      C1904   1.387       .  A
C1904      H1908   1.077       .  S
C1909      S1915   1.710       .  A
C1909      C1914   1.387       .  A
C1909      C1910   1.405       .  A
C1910      C1911   1.405       .  A
C1910      H1921   1.083       .  S
C1911      C1920   1.376       .  A
C1911      C1912   1.387       .  A
C1912      S1918   1.709       .  A
C1912      C1913   1.405       .  A
C1913      C1914   1.404       .  A
C1913      H1922   1.083       .  S
C1914      C1917   1.376       .  A
S1915      C1916   1.723       .  A
C1916      C1917   1.387       .  A
C1917      H1923   1.083       .  S
S1918      C1919   1.723       .  A
C1919      C1920   1.386       .  A
C1920      H1924   1.083   1_655  S
C1925      S1931   1.712       .  A
C1925      C1930   1.386       .  A
C1925      C1926   1.401       .  A
C1926      C1927   1.404       .  A
C1926      H1937   1.083       .  S
C1927      C1936   1.367       .  A
C1927      C1928   1.386       .  A
C1928      S1934   1.713       .  A
C1928      C1929   1.402       .  A
C1929      C1930   1.405       .  A
C1929      H1938   1.083       .  S
C1930      C1933   1.369       .  A
S1931      C1932   1.720       .  A
C1932      C1933   1.389       .  A
C1933      H1939   1.083       .  S
S1934      C1935   1.721       .  A
C1935      C1936   1.388       .  A
C1936      H1940   1.083       .  S
C1941      S1947   1.708       .  A
C1941      C1946   1.388       .  A
C1941      C1942   1.404       .  A
C1942      C1943   1.404       .  A
C1942      H1953   1.083       .  S
C1943      C1952   1.375       .  A
C1943      C1944   1.388       .  A
C1944      S1950   1.706       .  A
C1944      C1945   1.402       .  A
C1945      C1946   1.402       .  A
C1945      H1954   1.083       .  S
C1946      C1949   1.374       .  A
S1947      C1948   1.723       .  A
C1948      C1949   1.385       .  A
C1949      H1955   1.083       .  S
S1950      C1951   1.723       .  A
C1951      C1952   1.386       .  A
C1957      S1963   1.701       .  A
C1957      C1962   1.388       .  A
C1957      C1958   1.399       .  A
C1958      C1959   1.399       .  A
C1958      H1969   1.083       .  S
C1959      C1968   1.369       .  A
C1959      C1960   1.388       .  A
C1960      S1966   1.702       .  A
C1960      C1961   1.400       .  A
C1961      C1962   1.399       .  A
C1961      H1970   1.083       .  S
C1962      C1965   1.368       .  A
S1963      C1964   1.717       .  A
C1964      C1965   1.382       .  A
C1965      H1971   1.083       .  S
S1966      C1967   1.723       .  A
C1967      C1968   1.383       .  A
C1968      H1972   1.083       .  S
C1973      S1979   1.703       .  A
C1973      C1978   1.388       .  A
C1973      C1974   1.399       .  A
C1974      C1975   1.400       .  A
C1974      H1985   1.083       .  S
C1975      C1984   1.368       .  A
C1975      C1976   1.388       .  A
C1976      S1982   1.702       .  A
C1976      C1977   1.399       .  A
C1977      C1978   1.399       .  A
C1977      H1986   1.083       .  S
C1978      C1981   1.366       .  A
S1979      C1980   1.719       .  A
C1980      C1981   1.381       .  A
C1981      H1987   1.083       .  S
S1982      C1983   1.721       .  A
C1983      C1984   1.383       .  A
C1984      H1988   1.083       .  S
C1989      S1995   1.709       .  A
C1989      C1994   1.387       .  A
C1989      C1990   1.402       .  A
C1990      C1991   1.404       .  A
C1990      H2001   1.083       .  S
C1991      C2000   1.369       .  A
C1991      C1992   1.388       .  A
C1992      S1998   1.701       .  A
C1992      C1993   1.395       .  A
C1993      C1994   1.397       .  A
C1993      H2002   1.083       .  S
C1994      C1997   1.361       .  A
S1995      C1996   1.721       .  A
C1996      C1997   1.378       .  A
C1997      H2003   1.081       .  S
S1998      C1999   1.719       .  A
C1999      C2000   1.387       .  A
C2000      H2004   1.083       .  S
C2005      S2011   1.709       .  A
C2005      C2010   1.387       .  A
C2005      C2006   1.400       .  A
C2006      C2007   1.402       .  A
C2006      H2017   1.083       .  S
C2007      C2016   1.366       .  A
C2007      C2008   1.386       .  A
C2008      S2014   1.715       .  A
C2008      C2009   1.405       .  A
C2009      C2010   1.406       .  A
C2009      H2018   1.083       .  S
C2010      C2013   1.372       .  A
S2011      C2012   1.719       .  A
C2012      C2013   1.389       .  A
C2013      H2019   1.083       .  S
S2014      C2015   1.722       .  A
C2015      C2016   1.387       .  A
C2016      H2020   1.083       .  S
C2021      S2027   1.710       .  A
C2021      C2026   1.386       .  A
C2021      C2022   1.401       .  A
C2022      C2023   1.403       .  A
C2022      H2033   1.083       .  S
C2023      C2032   1.369       .  A
C2023      C2024   1.387       .  A
C2024      S2030   1.711       .  A
C2024      C2025   1.403       .  A
C2025      C2026   1.405       .  A
C2025      H2034   1.083       .  S
C2026      C2029   1.370       .  A
S2027      C2028   1.719       .  A
C2028      C2029   1.389       .  A
C2029      H2035   1.083       .  S
S2030      C2031   1.721       .  A
C2031      C2032   1.386       .  A
C2032      H2036   1.083       .  S
C2037      S2043   1.712       .  A
C2037      C2042   1.387       .  A
C2037      C2038   1.402       .  A
C2038      C2039   1.404       .  A
C2038      H2049   1.083       .  S
C2039      C2048   1.369       .  A
C2039      C2040   1.385       .  A
C2040      S2046   1.716       .  A
C2040      C2041   1.405       .  A
C2041      C2042   1.407       .  A
C2041      H2050   1.083       .  S
C2042      C2045   1.373       .  A
S2043      C2044   1.720       .  A
C2044      C2045   1.390       .  A
C2045      H2051   1.083       .  S
S2046      C2047   1.724       .  A
C2047      C2048   1.390       .  A
C2048      H2052   1.082       .  S
C2053      S2059   1.710       .  A
C2053      C2058   1.384       .  A
C2053      C2054   1.402       .  A
C2054      C2055   1.405       .  A
C2054      H2065   1.083       .  S
C2055      C2064   1.370       .  A
C2055      C2056   1.388       .  A
C2056      S2062   1.704       .  A
C2056      C2057   1.396       .  A
C2057      C2058   1.399       .  A
C2057      H2066   1.083       .  S
C2058      C2061   1.361       .  A
S2059      C2060   1.729       .  A
C2060      C2061   1.383       .  A
C2061      H2067   1.077       .  S
S2062      C2063   1.719       .  A
C2063      C2064   1.387       .  A
C2064      H2068   1.083       .  S
C2069      S2075   1.709       .  A
C2069      C2074   1.385       .  A
C2069      C2070   1.402       .  A
C2070      C2071   1.404       .  A
C2070      H2081   1.083       .  S
C2071      C2080   1.371       .  A
C2071      C2072   1.387       .  A
C2072      S2078   1.708       .  A
C2072      C2073   1.400       .  A
C2073      C2074   1.402       .  A
C2073      H2082   1.083       .  S
C2074      C2077   1.367       .  A
S2075      C2076   1.728       .  A
C2076      C2077   1.388       .  A
C2077      H2083   1.083       .  S
S2078      C2079   1.722       .  A
C2079      C2080   1.387       .  A
C2080      H2084   1.083       .  S
C2085      S2091   1.704       .  A
C2085      C2090   1.384       .  A
C2085      C2086   1.399       .  A
C2086      C2087   1.401       .  A
C2086      H2097   1.083       .  S
C2087      C2096   1.365       .  A
C2087      C2088   1.387       .  A
C2088      S2094   1.708       .  A
C2088      C2089   1.399       .  A
C2089      C2090   1.402       .  A
C2089      H2098   1.083       .  S
C2090      C2093   1.364       .  A
S2091      C2092   1.728       .  A
C2092      C2093   1.387       .  A
C2093      H2099   1.076       .  S
S2094      C2095   1.721       .  A
C2095      C2096   1.385       .  A
C2096      H2100   1.083       .  S
C2101      S2107   1.702       .  A
C2101      C2106   1.388       .  A
C2101      C2102   1.401       .  A
C2102      C2103   1.400       .  A
C2102      H2113   1.083       .  S
C2103      C2112   1.371       .  A
C2103      C2104   1.388       .  A
C2104      S2110   1.700       .  A
C2104      C2105   1.400       .  A
C2105      C2106   1.399       .  A
C2105      H2114   1.083       .  S
C2106      C2109   1.370       .  A
S2107      C2108   1.719       .  A
C2108      C2109   1.382       .  A
C2109      H2115   1.083       .  S
S2110      C2111   1.723       .  A
C2111      C2112   1.385       .  A
C2112      H2116   1.083       .  S
C2117      S2123   1.708       .  A
C2117      C2122   1.387       .  A
C2117      C2118   1.400       .  A
C2118      H2129   1.083       .  S
C2119      C2128   1.365       .  A
C2119      C2120   1.388   1_655  A
C2120      S2126   1.702   1_455  A
C2121      C2122   1.397       .  A
C2121      H2130   1.083       .  S
C2122      C2125   1.359       .  A
S2123      C2124   1.720       .  A
C2124      C2125   1.378       .  A
C2125      H2131   1.079       .  S
S2126      C2127   1.720       .  A
C2127      C2128   1.385       .  A
C2128      H2132   1.083       .  S
C2133      S2139   1.703       .  A
C2133      C2138   1.388       .  A
C2134      C2135   1.401       .  A
C2134      H2145   1.083       .  S
C2135      C2144   1.372       .  A
C2135      C2136   1.388       .  A
C2136      S2142   1.703       .  A
C2136      C2137   1.400       .  A
C2138      C2141   1.368       .  A
S2139      C2140   1.723       .  A
C2140      C2141   1.384       .  A
C2141      H2147   1.083       .  S
S2142      C2143   1.719       .  A
C2143      C2144   1.383       .  A
C2144      H2148   1.083       .  S
C2149      S2155   1.707       .  A
C2149      C2154   1.387       .  A
C2149      C2150   1.400       .  A
C2150      C2151   1.401       .  A
C2150      H2161   1.083       .  S
C2151      C2160   1.367       .  A
C2151      C2152   1.387       .  A
C2152      S2158   1.708       .  A
C2152      C2153   1.401       .  A
C2153      C2154   1.402       .  A
C2153      H2162   1.083       .  S
C2154      C2157   1.369       .  A
S2155      C2156   1.722       .  A
C2156      C2157   1.385       .  A
C2157      H2163   1.083       .  S
S2158      C2159   1.722       .  A
C2159      C2160   1.383       .  A
C2160      H2164   1.083       .  S
C2165      S2171   1.705       .  A
C2165      C2170   1.387       .  A
C2166      C2167   1.399       .  A
C2166      H2177   1.083       .  S
C2167      C2176   1.364       .  A
C2167      C2168   1.388       .  A
C2168      S2174   1.702       .  A
C2168      C2169   1.397       .  A
C2169      H2178   1.083       .  S
C2170      C2173   1.365       .  A
S2171      C2172   1.721       .  A
C2172      C2173   1.386       .  A
C2173      H2179   1.083       .  S
S2174      C2175   1.719       .  A
C2175      C2176   1.379       .  A
C2176      H2180   1.083       .  S
C2181      S2187   1.706       .  A
C2181      C2186   1.387       .  A
C2182      C2183   1.401       .  A
C2182      H2193   1.083       .  S
C2183      C2192   1.370       .  A
C2183      C2184   1.388       .  A
C2184      S2190   1.704       .  A
C2184      C2185   1.401       .  A
C2185      H2194   1.083       .  S
C2186      C2189   1.368       .  A
S2187      C2188   1.724       .  A
C2188      C2189   1.383       .  A
C2189      H2195   1.083       .  S
S2190      C2191   1.720       .  A
C2191      C2192   1.383       .  A
C2192      H2196   1.083       .  S
C2197      S2203   1.713       .  A
C2197      C2202   1.386       .  A
C2197      C2198   1.402       .  A
C2198      C2199   1.405       .  A
C2198      H2209   1.083       .  S
C2199      C2208   1.368       .  A
C2199      C2200   1.385       .  A
C2200      S2206   1.712       .  A
C2200      C2201   1.402       .  A
C2201      C2202   1.404       .  A
C2201      H2210   1.083       .  S
C2202      C2205   1.368       .  A
S2203      C2204   1.721       .  A
C2204      C2205   1.389       .  A
C2205      H2211   1.083       .  S
S2206      C2207   1.722       .  A
C2207      C2208   1.391       .  A
C2208      H2212   1.081       .  S
C2213      S2219   1.715       .  A
C2213      C2218   1.385       .  A
C2214      C2215   1.406       .  A
C2214      H2225   1.083       .  S
C2215      C2224   1.373       .  A
C2215      C2216   1.386       .  A
C2216      S2222   1.713       .  A
C2216      C2217   1.405       .  A
C2217      H2226   1.083       .  S
C2218      C2221   1.371       .  A
S2219      C2220   1.724       .  A
C2220      C2221   1.390       .  A
C2221      H2227   1.081       .  S
S2222      C2223   1.724       .  A
C2223      C2224   1.391       .  A
C2224      H2228   1.082       .  S
C2229      S2235   1.718       .  A
C2229      C2234   1.385       .  A
C2230      C2231   1.407   1_455  A
C2230      H2241   1.083       .  S
C2231      C2240   1.371       .  A
C2231      C2232   1.385       .  A
C2232      S2238   1.715       .  A
C2233      C2234   1.407       .  A
C2233      H2242   1.083       .  S
C2234      C2237   1.371       .  A
S2235      C2236   1.722       .  A
C2236      C2237   1.392       .  A
C2237      H2243   1.083       .  S
S2238      C2239   1.722       .  A
C2239      C2240   1.390       .  A
C2240      H2244   1.079       .  S
