geometry optimzed in LAMMPS
_audit_creation_date              2020-11-30 
_audit_creation_method            'lammps2cif' 
_symmetry_space_group_name_H-M    'P1' 
_symmetry_Int_Tables_number       1 
_symmetry_cell_setting            triclinic 
loop_ 
_symmetry_equiv_pos_as_xyz 
  x,y,z 
_cell_length_a                    33.11372805143517 
_cell_length_b                    32.44494813094065 
_cell_length_c                    33.9893474762851 
_cell_angle_alpha                 90.45793548602154 
_cell_angle_beta                  89.31211882657894 
_cell_angle_gamma                 90.92415336398949 
loop_ 
_atom_site_label 
_atom_site_type_symbol 
_atom_site_fract_x 
_atom_site_fract_y 
_atom_site_fract_z 
_atom_site_charge 
C1          C  0.72197810  0.98838997  0.01004815    -0.02400
C2          C  0.71475947  0.70944759  0.72649496    -0.02400
C3          C  0.98002697  0.99995659  0.73567560    -0.02400
C4          C  0.21100359  0.21879256  0.73781394    -0.02400
O5          O  0.59827545  0.20071573  0.71621308    -0.80800
O6          O  0.40806134  0.20206474  0.70472191    -0.65490
O7          O  0.51896341  0.22784855  0.71310524    -1.12100
C8          C  0.49513652  0.22222641  0.84528657     1.06080
O9          O  0.38877148  0.24422882  0.75207022    -0.78700
O10         O  0.45577551  0.29371459  0.76247510    -0.66280
Ni11       Ni  0.55304903  0.19519455  0.68005921     1.34870
C12         C  0.49332682  0.30301372  0.76042565     0.84820
O13         O  0.46356341  0.23170291  0.65878608    -0.79240
O14         O  0.51369561  0.19318880  0.63682703    -0.89520
C15         C  0.38088474  0.22127161  0.72216183     0.84390
O16         O  0.53355367  0.14561276  0.70618593    -0.67720
O17         O  0.46811798  0.24812739  0.83569640    -0.87010
C18         C  0.49651905  0.13465565  0.70929443     0.85220
C19         C  0.48419775  0.21764175  0.63138324     1.06790
H20         H  0.45557873  0.17919423  0.77035477     0.38590
O21         O  0.46310212  0.20711128  0.76332023    -1.09660
O22         O  0.51841811  0.27763696  0.77426821    -0.66320
Ni23       Ni  0.51920703  0.21733276  0.76728082     1.26350
O24         O  0.46874550  0.15859586  0.69912718    -0.66540
O25         O  0.51750224  0.20505956  0.82028563    -0.78840
C26         C  0.60231615  0.21897014  0.74947006     0.84610
O27         O  0.57367869  0.22681231  0.77230594    -0.66010
Ni28       Ni  0.43134020  0.24669723  0.79080753     1.27450
Ni29       Ni  0.46296654  0.21645466  0.70962642     1.26060
H30         H  0.52472152  0.25613554  0.70743409     0.39150
C31         C  0.50741140  0.48517550  0.71752420    -0.02400
C32         C  0.52151117  0.21825398  0.00824015    -0.02400
O33         O  0.74442196  0.68836187  0.90898367    -0.80800
O34         O  0.69790045  0.73606008  0.06477219    -0.65490
O35         O  0.72253032  0.74624774  0.95437842    -1.12100
C36         C  0.85543888  0.74316616  0.00680597     1.06080
O37         O  0.73663558  0.79056580  0.06558611    -0.78700
O38         O  0.80151925  0.81545602  0.02123438    -0.66280
Ni39       Ni  0.69586814  0.71714195  0.91556861     1.34870
C40         C  0.77799221  0.82741016  0.99533530     0.84820
O41         O  0.65065259  0.74137908  0.99370700    -0.79240
O42         O  0.64851999  0.74736400  0.92703338    -0.89520
C43         C  0.71843014  0.76281339  0.08482678     0.84390
O44         O  0.67463145  0.67709501  0.94877388    -0.67720
O45         O  0.83870775  0.74983685  0.04011840    -0.87010
C46         C  0.69827396  0.65966718  0.97114944     0.85220
C47         C  0.63198385  0.74974986  0.96110071     1.06790
H48         H  0.77274950  0.70979213  0.02115961     0.38590
O49         O  0.76521497  0.73741722  0.01451834    -1.09660
O50         O  0.77370108  0.80539129  0.96405958    -0.66320
Ni51       Ni  0.77948824  0.74431016  0.96093462     1.26350
O52         O  0.71150747  0.67905170  0.00111460    -0.66540
O53         O  0.83753136  0.74405484  0.97298445    -0.78840
C54         C  0.76765645  0.70897622  0.88727773     0.84610
O55         O  0.78737982  0.73978988  0.90322519    -0.66010
Ni56       Ni  0.78840160  0.77086396  0.05367768     1.27450
Ni57       Ni  0.70786837  0.73898579  0.00731739     1.26060
H58         H  0.71649204  0.77332596  0.94596318     0.39150
C59         C  0.84629646  0.39578541  0.86558352    -0.02400
C60         C  0.97212748  0.50820306  0.77336956    -0.02400
C61         C  0.71939556  0.48484390  0.97343161    -0.02400
C62         C  0.20060836  0.01877103  0.50261294    -0.02400
C63         C  0.10267699  0.10672675  0.63342325    -0.02400
C64         C  0.02019203  0.71756784  0.00994810    -0.02400
C65         C  0.23727525  0.50722818  0.98970327    -0.02400
C66         C  0.21189484  0.72800142  0.22142620    -0.02400
C67         C  0.11985058  0.59600602  0.11026828    -0.02400
C68         C  0.50039940  0.71469951  0.48826057    -0.02400
O69         O  0.30164134  0.75024237  0.55909132    -0.80800
O70         O  0.24726048  0.78042210  0.39623859    -0.65490
O71         O  0.24731303  0.77627655  0.50873735    -1.12100
C72         C  0.23914931  0.63480466  0.47472016     1.06080
O73         O  0.19003405  0.74751366  0.40661622    -0.78700
O74         O  0.16881132  0.68793780  0.46089627    -0.66280
Ni75       Ni  0.28752515  0.80205029  0.53944967     1.34870
C76         C  0.15705409  0.71831746  0.48003757     0.84820
O77         O  0.25287931  0.84060506  0.45830147    -0.79240
O78         O  0.27087855  0.85386487  0.52079721    -0.89520
C79         C  0.21466654  0.76377066  0.38253987     0.84390
O80         O  0.33133021  0.80081326  0.50362577    -0.67720
O81         O  0.23113845  0.64652455  0.44004964    -0.87010
C82         C  0.33652343  0.77146885  0.47979999     0.85220
C83         C  0.24906188  0.86101335  0.49116923     1.06790
H84         H  0.27113724  0.71018349  0.44791731     0.38590
O85         O  0.24592513  0.72231777  0.45518124    -1.09660
O86         O  0.18054537  0.73140631  0.50743761    -0.66320
Ni87       Ni  0.23988130  0.71822024  0.51023111     1.26350
O88         O  0.31045078  0.76682985  0.45237591    -0.66540
O89         O  0.23477524  0.65779615  0.50606667    -0.78840
C90         C  0.27552571  0.73587758  0.58274487     0.84610
O91         O  0.24300513  0.71907743  0.56829382    -0.66010
Ni92       Ni  0.20922782  0.69563024  0.42244493     1.27450
Ni93       Ni  0.25125352  0.78040181  0.45366548     1.26060
H94         H  0.22231569  0.78876239  0.51694289     0.39150
O95         O  0.24215386  0.58252076  0.79413756    -0.80800
O96         O  0.27628912  0.40820064  0.75931672    -0.65490
O97         O  0.26596435  0.52390429  0.74261053    -1.12100
C98         C  0.13036545  0.47817204  0.74124736     1.06080
O99         O  0.24653430  0.41062124  0.70288932    -0.78700
O100        O  0.18840591  0.45623851  0.67185478    -0.66280
Ni101      Ni  0.29216996  0.56468192  0.77172724     1.34870
C102        C  0.21445245  0.48220009  0.66064304     0.84820
O103        O  0.33184047  0.47636753  0.75448306    -0.79240
O104        O  0.34033099  0.54538299  0.74762186    -0.89520
C105        C  0.25829909  0.38927165  0.73103679     0.84390
O106        O  0.30231486  0.53146024  0.81544042    -0.67720
O107        O  0.14318789  0.44203994  0.73453648    -0.87010
C108        C  0.27457689  0.50913251  0.82931023     0.85220
C109        C  0.35115264  0.50833175  0.74083513     1.06790
H110        H  0.20525818  0.46087865  0.77589016     0.38590
O111        O  0.21680911  0.46493406  0.75003814    -1.09660
O112        O  0.22097739  0.51428399  0.68206006    -0.66320
Ni113      Ni  0.20927163  0.52025701  0.73957379     1.26350
O114        O  0.26398737  0.47702823  0.80993333    -0.66540
O115        O  0.15143718  0.51163729  0.73611483    -0.78840
C116        C  0.21686516  0.59885983  0.77158638     0.84610
O117        O  0.20458898  0.57929800  0.74042094    -0.66010
Ni118      Ni  0.19395018  0.42480190  0.71732261     1.27450
Ni119      Ni  0.27382636  0.46794399  0.75352625     1.26060
H120        H  0.27658342  0.52883566  0.71671412     0.39150
O121        O  0.06483916  0.80745960  0.74666672    -0.80800
O122        O  0.89765642  0.73339035  0.75775314    -0.65490
O123        O  0.01238669  0.74481068  0.76017242    -1.12100
C124        C  0.99210061  0.76010245  0.62411680     1.06080
O125        O  0.91082454  0.68542209  0.71362766    -0.78700
O126        O  0.97235328  0.67255347  0.66526740    -0.66280
Ni127      Ni  0.04040632  0.78257970  0.79172905     1.34870
C128        C  0.99573156  0.66369250  0.69297405     0.84820
O129        O  0.95446097  0.73506636  0.81913110    -0.79240
O130        O  0.01763582  0.75596590  0.83653811    -0.89520
C131        C  0.88561998  0.70505209  0.73399980     0.84390
O132        O  0.00075595  0.82411518  0.79262282    -0.67720
O133        O  0.95618081  0.74620089  0.62916186    -0.87010
C134        C  0.97479942  0.82930136  0.76615660     0.85220
C135        C  0.98410961  0.73744239  0.84365351     1.06790
H136        H  0.95412967  0.77591567  0.69852503     0.38590
O137        O  0.96156575  0.74871729  0.70610118    -1.09660
O138        O  0.02082205  0.69076340  0.70519385    -0.66320
Ni139      Ni  0.01813932  0.75020960  0.70482674     1.26350
O140        O  0.94797262  0.80151764  0.76041721    -0.66540
O141        O  0.02046496  0.75655815  0.64903270    -0.78840
C142        C  0.08944919  0.78572122  0.72736836     0.84610
O143        O  0.07598914  0.75529710  0.70727428    -0.66010
Ni144      Ni  0.93325031  0.71467022  0.67093465     1.27450
Ni145      Ni  0.95540536  0.74189551  0.76168712     1.26060
H146        H  0.02162114  0.71824355  0.76824511     0.39150
C147        C  0.25845861  0.76532341  0.74845748    -0.02400
O148        O  0.39499897  0.69723810  0.20683178    -0.80800
O149        O  0.58726472  0.70704798  0.19866880    -0.65490
O150        O  0.47421725  0.69192327  0.22601599    -1.12100
C151        C  0.50210359  0.83293025  0.24606136     1.06080
O152        O  0.58698655  0.72225631  0.26094082    -0.78700
O153        O  0.53930387  0.76554713  0.30775748    -0.66280
Ni154      Ni  0.43936365  0.67122041  0.18584314     1.34870
C155        C  0.51262433  0.74047452  0.31961503     0.84820
O156        O  0.53644150  0.64144798  0.19410187    -0.79240
O157        O  0.48191636  0.64288624  0.16306682    -0.89520
C158        C  0.60679702  0.71624802  0.22973455     0.84390
O159        O  0.44961632  0.71907279  0.15588673    -0.67720
O160        O  0.53878499  0.82471258  0.25247436    -0.87010
C161        C  0.48301549  0.73186261  0.14183772     0.85220
C162        C  0.50276441  0.62496796  0.18792505     1.06790
H163        H  0.52435474  0.76961313  0.20193358     0.38590
O164        O  0.52358391  0.75229152  0.22487242    -1.09660
O165        O  0.48302549  0.73047467  0.29696716    -0.66320
Ni166      Ni  0.46972191  0.74837465  0.24212383     1.26350
O167        O  0.51685595  0.71771508  0.15454151    -0.66540
O168        O  0.47161502  0.80781334  0.25246591    -0.78840
C169        C  0.38562576  0.72142246  0.23430649     0.84610
O170        O  0.41150351  0.74302663  0.25432259    -0.66010
Ni171      Ni  0.56325677  0.77393528  0.25787361     1.27450
Ni172      Ni  0.53050000  0.69801317  0.20855036     1.26060
H173        H  0.47147485  0.67448560  0.24878097     0.39150
C174        C  0.35811931  0.87775740  0.86606185    -0.02400
C175        C  0.48349889  0.96969643  0.75175412    -0.02400
C176        C  0.45692158  0.76544745  0.98623838    -0.02400
C177        C  0.73293344  0.48971600  0.50880679    -0.02400
O178        O  0.69179517  0.40253271  0.25070564    -0.80800
O179        O  0.72907867  0.57203789  0.20845242    -0.65490
O180        O  0.73650317  0.45750348  0.21771561    -1.12100
C181        C  0.75668906  0.50562772  0.34728013     1.06080
O182        O  0.79014071  0.55981922  0.22761765    -0.78700
O183        O  0.81913501  0.51709574  0.28940921    -0.66280
Ni184      Ni  0.69825658  0.42032426  0.19910611     1.34870
C185        C  0.83061681  0.49525079  0.26161427     0.84820
O186        O  0.71759872  0.50820580  0.15887136    -0.79240
O187        O  0.70697127  0.44060618  0.14712799    -0.89520
C188        C  0.76521855  0.58468653  0.21445179     0.84390
O189        O  0.65016457  0.44930731  0.20801038    -0.67720
O190        O  0.76154878  0.54155996  0.33253238    -0.87010
C191        C  0.64381872  0.48264608  0.22610656     0.85220
C192        C  0.71586954  0.47716772  0.13606504     1.06790
H193        H  0.71342599  0.52171647  0.28089484     0.38590
O194        O  0.73795931  0.51571750  0.26644534    -1.09660
O195        O  0.80664471  0.46601845  0.25160094    -0.66320
Ni196      Ni  0.74954102  0.46034145  0.27199215     1.26350
O197        O  0.67028097  0.51177451  0.22770486    -0.66540
O198        O  0.76029358  0.47075306  0.32810454    -0.78840
C199        C  0.72057730  0.38188142  0.26238391     0.84610
O200        O  0.75242227  0.40092501  0.27493850    -0.66010
Ni201      Ni  0.77711622  0.55344828  0.28133817     1.27450
Ni202      Ni  0.72761161  0.51350262  0.21254186     1.26060
H203        H  0.76056726  0.45141192  0.20256619     0.39150
C204        C  0.72329147  0.20210368  0.24286607    -0.02400
O205        O  0.67052491  0.90943288  0.72859584    -0.80800
O206        O  0.73246383  0.07649868  0.69944388    -0.65490
O207        O  0.72966072  0.96097218  0.71384373    -1.12100
C208        C  0.71508941  0.00679127  0.84576991     1.06080
O209        O  0.78191816  0.07311784  0.74074148    -0.78700
O210        O  0.79424024  0.02179501  0.80054950    -0.66280
Ni211      Ni  0.69973311  0.92460286  0.68269198     1.34870
C212        C  0.80752019  0.99536814  0.77658489     0.84820
O213        O  0.73559381  0.00957997  0.65018577    -0.79240
O214        O  0.73340733  0.94078045  0.63905861    -0.89520
C215        C  0.76161659  0.09436506  0.71746077     0.84390
O216        O  0.66048295  0.96389985  0.66915895    -0.67720
O217        O  0.72367833  0.04248247  0.83208923    -0.87010
C218        C  0.64638013  0.98838297  0.69449209     0.85220
C219        C  0.74613293  0.97719424  0.63080781     1.06790
H220        H  0.69380610  0.02900986  0.76655093     0.38590
O221        O  0.72110965  0.02121461  0.76003236    -1.09660
O222        O  0.78434280  0.96526420  0.76652985    -0.66320
Ni223      Ni  0.72433060  0.96424973  0.76931104     1.26350
O224        O  0.66871670  0.01863939  0.70495526    -0.66540
O225        O  0.72040683  0.97265936  0.82639167    -0.78840
C226        C  0.69244314  0.88701806  0.74937036     0.84610
O227        O  0.71921287  0.90443824  0.77190028    -0.66010
Ni228      Ni  0.75331672  0.05854787  0.78727311     1.27450
Ni229      Ni  0.72797920  0.01770281  0.70503799     1.26060
H230        H  0.75652524  0.95245382  0.70756495     0.39150
C231        C  0.76133624  0.27174276  0.75563878    -0.02400
O232        O  0.72859129  0.16786258  0.42661430    -0.80800
O233        O  0.70246622  0.22057748  0.58511994    -0.65490
O234        O  0.70756229  0.22783878  0.47308770    -1.12100
C235        C  0.84670425  0.22181493  0.49960048     1.06080
O236        O  0.73992820  0.27593941  0.57553495    -0.78700
O237        O  0.79319212  0.30443077  0.52606902    -0.66280
Ni238      Ni  0.67910695  0.19268092  0.43965297     1.34870
C239        C  0.77125445  0.31345552  0.49739701     0.84820
O240        O  0.64325202  0.22026001  0.52335951    -0.79240
O241        O  0.63244682  0.21935886  0.45683934    -0.89520
C242        C  0.72152112  0.25238971  0.59903743     0.84390
O243        O  0.66660558  0.15162811  0.47628046    -0.67720
O244        O  0.83843628  0.23374404  0.53481813    -0.87010
C245        C  0.69574325  0.13705385  0.49379685     0.85220
C246        C  0.62127678  0.22634174  0.49239419     1.06790
H247        H  0.77017546  0.19348755  0.53116184     0.38590
O248        O  0.76031434  0.22045814  0.52482169    -1.09660
O249        O  0.76224662  0.28642761  0.47107735    -0.66320
Ni250      Ni  0.76470254  0.22584462  0.47033229     1.26350
O251        O  0.70964686  0.15869129  0.52232950    -0.66540
O252        O  0.82219632  0.22317504  0.47085460    -0.78840
C253        C  0.74672557  0.18975917  0.40203416     0.84610
O254        O  0.76466589  0.22264802  0.41395689    -0.66010
Ni255      Ni  0.78974073  0.25595238  0.55677274     1.27450
Ni256      Ni  0.70257214  0.21967108  0.52736124     1.26060
H257        H  0.69869329  0.25539776  0.46757893     0.39150
C258        C  0.87064553  0.87647513  0.35197897    -0.02400
C259        C  0.75480249  0.97373585  0.46786589    -0.02400
C260        C  0.99543916  0.78053307  0.45727290    -0.02400
C261        C  0.78249220  0.75079582  0.23973073    -0.02400
C262        C  0.26315122  0.47374277  0.50049651    -0.02400
O263        O  0.53797915  0.41566314  0.98659276    -0.80800
O264        O  0.46910157  0.57275617  0.03746816    -0.65490
O265        O  0.47581694  0.45784582  0.00718842    -1.12100
C266        C  0.49248469  0.52053995  0.88213671     1.06080
O267        O  0.42286118  0.56502029  0.99365864    -0.78700
O268        O  0.41391065  0.52268705  0.92685216    -0.66280
Ni269      Ni  0.50483047  0.41770824  0.03170508     1.34870
C270        C  0.40235292  0.49328653  0.94799449     0.84820
O271        O  0.46667767  0.49364175  0.08022394    -0.79240
O272        O  0.46929338  0.42322929  0.07470272    -0.89520
C273        C  0.44044756  0.58875036  0.01706401     0.84390
O274        O  0.53978249  0.45514469  0.05669837    -0.67720
O275        O  0.48255726  0.55411499  0.89921078    -0.87010
C276        C  0.55677270  0.48151782  0.03546972     0.85220
C277        C  0.46070532  0.45621769  0.09355852     1.06790
H278        H  0.51232228  0.53498577  0.96653854     0.38590
O279        O  0.48530570  0.52400883  0.97053285    -1.09660
O280        O  0.42614619  0.46327338  0.95144271    -0.66320
Ni281      Ni  0.48529212  0.46858681  0.95297629     1.26350
O282        O  0.53639332  0.51331460  0.02671628    -0.66540
O283        O  0.49191530  0.48469522  0.89845070    -0.78840
C284        C  0.52139140  0.39360688  0.96098393     0.84610
O285        O  0.49348476  0.41028792  0.94075564    -0.66010
Ni286      Ni  0.45190895  0.56107881  0.94596777     1.27450
Ni287      Ni  0.47626371  0.51272166  0.02535338     1.26060
H288        H  0.44864949  0.44819607  0.01076350     0.39150
C289        C  0.46721814  0.47799243  0.25481747    -0.02400
C290        C  0.36051242  0.37802621  0.37247378    -0.02400
C291        C  0.44848703  0.25690539  0.47813481    -0.02400
O292        O  0.48857574  0.02580550  0.56839295    -0.80800
O293        O  0.44537638  0.03040759  0.40285011    -0.65490
O294        O  0.45754684  0.98573829  0.50583454    -1.12100
C295        C  0.58672499  0.95650076  0.45878304     1.06080
O296        O  0.46586361  0.97032743  0.38688330    -0.78700
O297        O  0.49118889  0.91043154  0.43709851    -0.66280
Ni298      Ni  0.43630916  0.01633585  0.54889210     1.34870
C299        C  0.49988220  0.89823354  0.47161502     0.84820
O300        O  0.39157815  0.01645835  0.46418066    -0.79240
O301        O  0.38427311  0.00592287  0.52956068    -0.89520
C302        C  0.46203124  0.00782909  0.37732381     0.84390
O303        O  0.43372775  0.07106700  0.52730971    -0.67720
O304        O  0.56624600  0.94294410  0.42999395    -0.87010
C305        C  0.44606527  0.08467498  0.49439063     0.85220
C306        C  0.36992257  0.01101967  0.49535979     1.06790
H307        H  0.52045474  0.02096954  0.44158752     0.38590
O308        O  0.50542145  0.99610645  0.44811034    -1.09660
O309        O  0.51162307  0.92329627  0.49746936    -0.66320
Ni310      Ni  0.51554220  0.98181587  0.50065091     1.26350
O311        O  0.46363850  0.06159460  0.46992138    -0.66540
O312        O  0.57185176  0.97602620  0.48871713    -0.78840
C313        C  0.50568910  0.99377237  0.58035340     0.84610
O314        O  0.52264457  0.97030272  0.55547466    -0.66010
Ni315      Ni  0.51544707  0.95594521  0.40907559     1.27450
Ni316      Ni  0.44883715  0.00733043  0.45496705     1.26060
H317        H  0.44564329  0.95837506  0.50685120     0.39150
C318        C  0.49636549  0.01029350  0.21601825    -0.02400
C319        C  0.99845979  0.49573267  0.22017088    -0.02400
O320        O  0.95703207  0.50858805  0.58033266    -0.80800
O321        O  0.98807439  0.45608151  0.41546269    -0.65490
O322        O  0.00563642  0.47654827  0.52624871    -1.12100
C323        C  0.00819414  0.61190148  0.47431802     1.06080
O324        O  0.04456651  0.48871898  0.41279469    -0.78700
O325        O  0.08359300  0.53976218  0.45478328    -0.66280
Ni326      Ni  0.97266371  0.45513346  0.56662470     1.34870
C327        C  0.09176131  0.52730059  0.48845180     0.84820
O328        O  0.99034655  0.40447351  0.48403926    -0.79240
O329        O  0.98805691  0.40229433  0.55124650    -0.89520
C330        C  0.01605000  0.47365905  0.39439096     0.84390
O331        O  0.92334082  0.44823507  0.54062285    -0.67720
O332        O  0.02495538  0.59625815  0.44433649    -0.87010
C333        C  0.91165798  0.46237489  0.50840615     0.85220
C334        C  0.99130927  0.38554701  0.51743473     1.06790
H335        H  0.97205156  0.53240126  0.46067372     0.38590
O336        O  0.99828223  0.52203029  0.46731829    -1.09660
O337        O  0.06656806  0.52930244  0.51729902    -0.66320
Ni338      Ni  0.00763326  0.53540035  0.52070747     1.26350
O339        O  0.93581316  0.47011212  0.47961971    -0.66540
O340        O  0.00637750  0.59432456  0.50854115    -0.78840
C341        C  0.98456738  0.52636312  0.59918383     0.84610
O342        O  0.01204858  0.54445500  0.57825765    -0.66010
Ni343      Ni  0.03448433  0.54224164  0.42858636     1.27450
Ni344      Ni  0.99408726  0.46347677  0.47300683     1.26060
H345        H  0.03240686  0.46660378  0.53131038     0.39150
C346        C  0.01449854  0.21140669  0.51145521    -0.02400
C347        C  0.24457939  0.99405162  0.96890894    -0.02400
O348        O  0.02872344  0.91072025  0.03854210    -0.80800
O349        O  0.98396821  0.09854450  0.99721724    -0.65490
O350        O  0.98842113  0.98379178  0.02691338    -1.12100
C351        C  0.99542766  0.98096346  0.89003823     1.06080
O352        O  0.92779682  0.08080791  0.96683296    -0.78700
O353        O  0.90813416  0.00870288  0.93425158    -0.66280
Ni354      Ni  0.03300861  0.96558325  0.05658162     1.34870
C355        C  0.90028445  0.98671184  0.96417837     0.84820
O356        O  0.99037276  0.05993907  0.06779235    -0.79240
O357        O  0.03884519  0.01916295  0.07742026    -0.89520
C358        C  0.95042187  0.10842951  0.98139464     0.84390
O359        O  0.06659449  0.97629364  0.01233551    -0.67720
O360        O  0.97923509  0.01608740  0.88931756    -0.87010
C361        C  0.07237852  0.01056488  0.99556969     0.85220
C362        C  0.00673691  0.03503920  0.09040501     1.06790
H363        H  0.01371474  0.02945030  0.95012832     0.38590
O364        O  0.98805883  0.02344641  0.96259646    -1.09660
O365        O  0.92777507  0.96578968  0.98052302    -0.66320
Ni366      Ni  0.98676096  0.96660992  0.97309740     1.26350
O367        O  0.05023976  0.04238767  0.00452360    -0.66540
O368        O  0.98804482  0.95429161  0.91723429    -0.78840
C369        C  0.01178475  0.89099523  0.01078481     0.84610
O370        O  0.98962690  0.90825868  0.98510248    -0.66010
Ni371      Ni  0.95202615  0.04713714  0.92789999     1.27450
Ni372      Ni  0.98998383  0.04219602  0.01385460     1.26060
H373        H  0.96372179  0.97686995  0.04090717     0.39150
C374        C  0.96727827  0.99031354  0.24056809    -0.02400
C375        C  0.94915379  0.28124424  0.97608012    -0.02400
O376        O  0.23078263  0.19375089  0.92381104    -0.80800
O377        O  0.20173284  0.23101464  0.08941396    -0.65490
O378        O  0.21095118  0.24849948  0.97789448    -1.12100
C379        C  0.34936759  0.25490125  0.01255817     1.06080
O380        O  0.23188523  0.29052386  0.08701131    -0.78700
O381        O  0.27211245  0.32895004  0.03635174    -0.66280
Ni382      Ni  0.18226117  0.21476371  0.94214078     1.34870
C383        C  0.26021232  0.33318916  0.00171631     0.84820
O384        O  0.14425933  0.23678241  0.02718701    -0.79240
O385        O  0.13451894  0.23821876  0.96148466    -0.89520
C386        C  0.21795456  0.26172044  0.10747020     0.84390
O387        O  0.17660639  0.16858723  0.97479064    -0.67720
O388        O  0.33579308  0.27296600  0.04347639    -0.87010
C389        C  0.20715894  0.15792817  0.99365048     0.85220
C390        C  0.12321800  0.24589293  0.99638870     1.06790
H391        H  0.27270426  0.21728025  0.04152899     0.38590
O392        O  0.26146653  0.24253148  0.03237927    -1.09660
O393        O  0.26644746  0.30627961  0.97493910    -0.66320
Ni394      Ni  0.26892790  0.24696451  0.97702510     1.26350
O395        O  0.21567236  0.17889657  0.02422004    -0.66540
O396        O  0.32770805  0.24546037  0.98222699    -0.78840
C397        C  0.24833300  0.21966749  0.90262247     0.84610
O398        O  0.27097178  0.24690627  0.91920613    -0.66010
Ni399      Ni  0.28368711  0.28229594  0.06590587     1.27450
Ni400      Ni  0.20386616  0.23773344  0.03217733     1.26060
H401        H  0.20191735  0.27626458  0.97379020     0.39150
O402        O  0.24499330  0.04816458  0.31653818    -0.80800
O403        O  0.22729066  0.02145721  0.15644792    -0.65490
O404        O  0.21773763  0.99485385  0.26373712    -1.12100
C405        C  0.34341749  0.96246435  0.23958186     1.06080
O406        O  0.25262567  0.95874435  0.14541848    -0.78700
O407        O  0.24383178  0.91618829  0.20626736    -0.66280
Ni408      Ni  0.19370340  0.03204046  0.29813162     1.34870
C409        C  0.24120969  0.90496574  0.24142725     0.84820
O410        O  0.16366206  0.02186699  0.21157021    -0.79240
O411        O  0.14544588  0.01465142  0.27610170    -0.89520
C412        C  0.24200150  0.99364543  0.13398753     0.84390
O413        O  0.19111121  0.07721604  0.26449306    -0.67720
O414        O  0.32326275  0.93266218  0.22558789    -0.87010
C415        C  0.22157034  0.09111048  0.24722994     0.85220
C416        C  0.13817621  0.01234670  0.23928398     1.06790
H417        H  0.29262954  0.01677610  0.20652805     0.38590
O418        O  0.27462864  0.99423853  0.21370547    -1.09660
O419        O  0.25903763  0.92615113  0.26875461    -0.66320
Ni420      Ni  0.27317658  0.98636572  0.26914484     1.26350
O421        O  0.23971169  0.06716459  0.22329520    -0.66540
O422        O  0.32996635  0.97940177  0.27051246    -0.78840
C423        C  0.25732412  0.02082949  0.33922856     0.84610
O424        O  0.26978961  0.98724160  0.32437888    -0.66010
Ni425      Ni  0.28794281  0.94631704  0.18509851     1.27450
Ni426      Ni  0.22069281  0.01018523  0.21096631     1.26060
H427        H  0.20273918  0.96921953  0.26585287     0.39150
O428        O  0.06463172  0.30333738  0.22896253    -0.80800
O429        O  0.90925024  0.24011524  0.28817818    -0.65490
O430        O  0.02131939  0.24529635  0.25996914    -1.12100
C431        C  0.95842184  0.25213346  0.13399936     1.06080
O432        O  0.91583337  0.18689689  0.24970180    -0.78700
O433        O  0.95687312  0.17009901  0.18232230    -0.66280
Ni434      Ni  0.05792769  0.28409547  0.28060245     1.34870
C435        C  0.98433868  0.15994102  0.20506644     0.84820
O436        O  0.98178422  0.24780704  0.33282659    -0.79240
O437        O  0.04952696  0.26136742  0.33104183    -0.89520
C438        C  0.89300309  0.20993837  0.26920054     0.84390
O439        O  0.01910425  0.32394384  0.29271935    -0.67720
O440        O  0.92685546  0.23636415  0.15036977    -0.87010
C441        C  0.99152948  0.33123742  0.26884315     0.85220
C442        C  0.01725429  0.24971081  0.34889893     1.06790
H443        H  0.94787618  0.27243915  0.21345227     0.38590
O444        O  0.95731216  0.24617544  0.22100886    -1.09660
O445        O  0.01367798  0.18517531  0.20979317    -0.66320
Ni446      Ni  0.01097076  0.24550915  0.20416663     1.26350
O447        O  0.96159322  0.30641126  0.26866461    -0.66540
O448        O  0.99448428  0.24876580  0.14848091    -0.78840
C449        C  0.08639411  0.27756801  0.21130094     0.84610
O450        O  0.06802580  0.24947996  0.19157848    -0.66010
Ni451      Ni  0.91985802  0.20956368  0.19916852     1.27450
Ni452      Ni  0.96668758  0.24654715  0.27662757     1.26060
H453        H  0.03204703  0.21922886  0.26728765     0.39150
C454        C  0.25649941  0.26406132  0.26494244    -0.02400
C455        C  0.62526039  0.10864781  0.11830113    -0.02400
C456        C  0.60682463  0.60205754  0.60329179    -0.02400
C457        C  0.14219226  0.30088424  0.25591942    -0.05690
C458        C  0.12858821  0.27326853  0.22598092     0.00230
C459        C  0.15443717  0.24191253  0.21346328    -0.08340
C460        C  0.19216098  0.23970912  0.23102301    -0.05710
C461        C  0.20860477  0.26906466  0.25867497     0.00220
C462        C  0.18180925  0.30068652  0.27168592    -0.08250
C463        C  0.19331869  0.33534578  0.30010597     0.62130
H464        H  0.12171244  0.32447415  0.26586109     0.12830
H465        H  0.21103763  0.21500101  0.22095210     0.12840
C466        C  0.14362297  0.21136021  0.18076588     0.62370
F467        F  0.16155694  0.36164835  0.30759467    -0.22800
F468        F  0.22441753  0.35907641  0.28475313    -0.20130
F469        F  0.20427331  0.31958993  0.33572186    -0.19810
F470        F  0.13290229  0.23246715  0.14736660    -0.19860
F471        F  0.11198005  0.18621046  0.19273686    -0.20180
F472        F  0.17537143  0.18598026  0.17059001    -0.22860
C473        C  0.27509482  0.14788013  0.24972703    -0.05690
C474        C  0.23541990  0.13394005  0.25843358     0.00230
C475        C  0.21113937  0.15950392  0.28345540    -0.08340
C476        C  0.22659242  0.19796388  0.29507809    -0.05710
C477        C  0.26061199  0.21669078  0.27655282     0.00220
C478        C  0.28867807  0.18821090  0.26047794    -0.08250
C479        C  0.33340374  0.19444861  0.26640402     0.62130
H480        H  0.29627496  0.12654011  0.23656668     0.12830
H481        H  0.20647409  0.21737685  0.31124404     0.12840
C482        C  0.16731157  0.14936883  0.29554020     0.62370
F483        F  0.34529604  0.16992121  0.29714427    -0.22800
F484        F  0.34281455  0.23481736  0.27592504    -0.20130
F485        F  0.35480735  0.18282515  0.23314751    -0.19810
F486        F  0.16604845  0.11728761  0.32209017    -0.19860
F487        F  0.14520628  0.13918918  0.26251137    -0.20180
F488        F  0.14799563  0.18222162  0.31350183    -0.22860
C489        C  0.25804203  0.23434477  0.16170092    -0.05690
C490        C  0.22985577  0.26343860  0.14914579     0.00230
C491        C  0.22807104  0.30187877  0.16995052    -0.08340
C492        C  0.25238120  0.30808198  0.20314324    -0.05710
C493        C  0.27108426  0.27402946  0.22092677     0.00220
C494        C  0.28432855  0.24423644  0.19307154    -0.08250
C495        C  0.32773565  0.24825916  0.17864304     0.62130
H496        H  0.26630635  0.20982510  0.14141622     0.12830
H497        H  0.24659573  0.33540628  0.22050246     0.12840
C498        C  0.19925669  0.33643796  0.16067196     0.62370
F499        F  0.34086430  0.21098831  0.16359101    -0.22800
F500        F  0.35330756  0.26139436  0.20810594    -0.20130
F501        F  0.33020435  0.27724836  0.14895579    -0.19810
F502        F  0.17429706  0.32747181  0.12938468    -0.19860
F503        F  0.22131835  0.37208120  0.15336863    -0.20180
F504        F  0.17473483  0.34428387  0.19278189    -0.22860
C505        C  0.96603025  0.32021327  0.04138838    -0.05690
C506        C  0.93609756  0.29941571  0.01861832     0.00230
C507        C  0.90287642  0.28590709  0.04225768    -0.08340
C508        C  0.91155454  0.27034199  0.07975662    -0.05710
C509        C  0.95041773  0.27499761  0.09652722     0.00220
C510        C  0.97685433  0.30458169  0.07863887    -0.08250
C511        C  0.01630101  0.31871011  0.09718334     0.62130
H512        H  0.98589116  0.34213769  0.02693725     0.12830
H513        H  0.88704997  0.25573726  0.09613127     0.12840
C514        C  0.86196671  0.30661204  0.03937491     0.62370
F515        F  0.03465322  0.35039135  0.07617452    -0.22800
F516        F  0.04297796  0.28642057  0.09808049    -0.20130
F517        F  0.00933435  0.33288476  0.13504216    -0.19810
F518        F  0.83348489  0.27983990  0.02366116    -0.19860
F519        F  0.86474175  0.34186769  0.01683702    -0.20180
F520        F  0.84807653  0.31879899  0.07624930    -0.22860
C521        C  0.02604238  0.30306198  0.97469997    -0.05690
C522        C  0.99645394  0.27242773  0.98331457     0.00230
C523        C  0.01173364  0.23896364  0.00801160    -0.08340
C524        C  0.05326237  0.23275436  0.01123464    -0.05710
C525        C  0.08139304  0.26097791  0.99874202     0.00220
C526        C  0.06800890  0.29762237  0.98078002    -0.08250
C527        C  0.09782226  0.33149251  0.96936743     0.62130
H528        H  0.01573612  0.33234919  0.96457657     0.12830
H529        H  0.06447041  0.20535028  0.02551405     0.12840
C530        C  0.99064323  0.20936224  0.03647311     0.62370
F531        F  0.07877446  0.36567614  0.95470754    -0.22800
F532        F  0.12434741  0.31744838  0.94083707    -0.20130
F533        F  0.11919963  0.34377358  0.00211511    -0.19810
F534        F  0.99894079  0.16946178  0.02576166    -0.19860
F535        F  0.95029088  0.21329539  0.04035035    -0.20180
F536        F  0.00668307  0.21470391  0.07354696    -0.22860
C537        C  0.99788870  0.06120797  0.26520313    -0.05690
C538        C  0.96332605  0.03815634  0.25218992     0.00230
C539        C  0.93016462  0.06342006  0.24363706    -0.08340
C540        C  0.93856027  0.10312909  0.22887072    -0.05710
C541        C  0.97803466  0.12060781  0.22798782     0.00220
C542        C  0.00686099  0.10124815  0.25175602    -0.08250
C543        C  0.04645928  0.12140909  0.26361101     0.62130
H544        H  0.02157880  0.04569595  0.28011054     0.12830
H545        H  0.91366947  0.12037163  0.21753912     0.12840
C546        C  0.88647182  0.05190630  0.25240796     0.62370
F547        F  0.07138085  0.09463038  0.28306993    -0.22800
F548        F  0.03863257  0.15372126  0.28892505    -0.20130
F549        F  0.06721717  0.13515722  0.23087834    -0.19810
F550        F  0.87492885  0.06993837  0.28767091    -0.19860
F551        F  0.88013690  0.01011376  0.25484918    -0.20180
F552        F  0.86201372  0.06615012  0.22304258    -0.22860
C553        C  0.03281174  0.01098906  0.20869160    -0.05690
C554        C  0.01430068  0.98386031  0.23736591     0.00230
C555        C  0.04109226  0.95794851  0.25871093    -0.08340
C556        C  0.08249258  0.96644464  0.25478721    -0.05710
C557        C  0.09820668  0.99745247  0.23029048     0.00220
C558        C  0.07375893  0.01796603  0.20448344    -0.08250
C559        C  0.09019671  0.04920969  0.17484185     0.62130
H560        H  0.01400070  0.03105793  0.19206700     0.12830
H561        H  0.10344301  0.94958878  0.27277035     0.12840
C562        C  0.03250719  0.92146766  0.28575515     0.62370
F563        F  0.05981568  0.06775722  0.15412999    -0.22800
F564        F  0.11517084  0.02947088  0.14805368    -0.20130
F565        F  0.11188193  0.08010964  0.19372686    -0.19810
F566        F  0.99368356  0.90698370  0.28684558    -0.19860
F567        F  0.04381473  0.93183727  0.32366781    -0.20180
F568        F  0.05577776  0.88862808  0.27325751    -0.22860
C569        C  0.96383215  0.17189736  0.94519707    -0.05690
C570        C  0.94025181  0.15152283  0.97331908     0.00230
C571        C  0.90522928  0.17125984  0.98828101    -0.08340
C572        C  0.90203932  0.21441383  0.98278597    -0.05710
C573        C  0.93284804  0.23683754  0.96271536    -0.00900
C574        C  0.95518456  0.21239932  0.93507941    -0.08250
C575        C  0.95912683  0.22141853  0.89159289     0.62130
H576        H  0.98533115  0.15453079  0.92763348     0.12830
H577        H  0.87833560  0.23015274  0.99786633     0.12840
C578        C  0.87438689  0.14828625  0.01344128     0.62370
F579        F  0.99942851  0.22411583  0.88072123    -0.22800
F580        F  0.93927343  0.25650920  0.88120015    -0.20130
F581        F  0.94162165  0.18931138  0.87036195    -0.19810
F582        F  0.89303684  0.13290145  0.04620110    -0.19860
F583        F  0.85746663  0.11611028  0.99205973    -0.20180
F584        F  0.84347889  0.17357604  0.02610104    -0.22860
C585        C  0.99221885  0.97422275  0.13287558    -0.05690
C586        C  0.98241544  0.01446405  0.12237397     0.00230
C587        C  0.94903686  0.03233172  0.14217615    -0.08340
C588        C  0.93224455  0.01150913  0.17506993    -0.05710
C589        C  0.95412854  0.98142787  0.19526090     0.00220
C590        C  0.97834791  0.95672629  0.16843847    -0.08250
C591        C  0.99642280  0.91534113  0.17729417     0.62130
H592        H  0.01401935  0.95746327  0.11539795     0.12830
H593        H  0.90400928  0.02127454  0.18676112     0.12840
C594        C  0.93321020  0.07417162  0.13109083     0.62370
F595        F  0.98148820  0.88620293  0.15110811    -0.22800
F596        F  0.98770597  0.90260861  0.21446618    -0.20130
F597        F  0.03808380  0.91738373  0.17325292    -0.19810
F598        F  0.92043217  0.07383345  0.09298428    -0.19860
F599        F  0.96371311  0.10337683  0.13489691    -0.20180
F600        F  0.90067255  0.08574479  0.15417399    -0.22860
C601        C  0.28093461  0.06623709  0.98392023    -0.05690
C602        C  0.25770019  0.04083390  0.95858679     0.00230
C603        C  0.23541998  0.06419466  0.93063066    -0.08340
C604        C  0.22067558  0.10306718  0.94243002    -0.05710
C605        C  0.23218869  0.12189454  0.97824643     0.00220
C606        C  0.26800492  0.10624089  0.99527363    -0.08250
C607        C  0.29297660  0.13076250  0.02432769     0.62130
H608        H  0.30844281  0.05494671  0.99569658     0.12830
H609        H  0.19818406  0.11740257  0.92438363     0.12840
C610        C  0.22110622  0.04722696  0.89142720     0.62370
F611        F  0.32733129  0.11021464  0.03532552    -0.22800
F612        F  0.27082688  0.13888521  0.05813508    -0.20130
F613        F  0.30527285  0.16683715  0.00646732    -0.19810
F614        F  0.17938415  0.04767505  0.88996799    -0.19860
F615        F  0.23376101  0.00757274  0.88419548    -0.20180
F616        F  0.23627510  0.07203743  0.86186270    -0.22860
C617        C  0.13573190  0.04468201  0.98007324    -0.05690
C618        C  0.11000691  0.01324345  0.96994973     0.00230
C619        C  0.12752918  0.97943294  0.94851182    -0.08340
C620        C  0.17028380  0.97759132  0.94283954    -0.05710
C621        C  0.19614847  0.00117185  0.96707334     0.00220
C622        C  0.17539805  0.03456947  0.98951359    -0.08250
C623        C  0.18509581  0.05405922  0.02982229     0.62130
H624        H  0.12182284  0.07151407  0.99341003     0.12830
H625        H  0.18310520  0.95368911  0.92433275     0.12840
C626        C  0.10282629  0.94334188  0.93421389     0.62370
F627        F  0.16257572  0.03362472  0.05831096    -0.22800
F628        F  0.22460336  0.05433839  0.03995199    -0.20130
F629        F  0.17304721  0.09452394  0.03220903    -0.19810
F630        F  0.06241935  0.95190711  0.93659075    -0.19860
F631        F  0.11065876  0.90941829  0.95710468    -0.20180
F632        F  0.11250385  0.93413928  0.89546718    -0.22860
C633        C  0.28374768  0.99292126  0.03296593    -0.05690
C634        C  0.24864523  0.98200023  0.01235136     0.00230
C635        C  0.21626327  0.96327707  0.03529286    -0.08340
C636        C  0.21347083  0.97329624  0.07464514    -0.05710
C637        C  0.24356021  0.99649579  0.09259239     0.00220
C638        C  0.28105306  0.00310493  0.07306665    -0.08250
C639        C  0.31695143  0.02190401  0.09441269     0.62130
H640        H  0.31221194  0.99540162  0.01726483     0.12830
H641        H  0.18820589  0.96123751  0.09206211     0.12840
C642        C  0.18641486  0.92991983  0.02212517     0.62370
F643        F  0.34981362  0.02778141  0.06943473    -0.22800
F644        F  0.32845507  0.99649094  0.12455952    -0.20130
F645        F  0.30634447  0.05973538  0.11011332    -0.19810
F646        F  0.18909277  0.89628369  0.04674843    -0.19860
F647        F  0.19377304  0.91585561  0.98459874    -0.20180
F648        F  0.14752717  0.94450988  0.02496428    -0.22860
C649        C  0.05126438  0.25244629  0.45492496    -0.05690
C650        C  0.03889951  0.21325914  0.46991788     0.00230
C651        C  0.03145067  0.18310417  0.43924118    -0.08340
C652        C  0.02123608  0.19641256  0.40099208    -0.05710
C653        C  0.02346045  0.23806275  0.39045053     0.00220
C654        C  0.04121546  0.26624518  0.41720209    -0.08250
C655        C  0.04769835  0.31156402  0.40679556     0.62130
H656        H  0.06644171  0.27451461  0.47272099     0.12830
H657        H  0.01253498  0.17385183  0.37881894     0.12840
C658        C  0.03205101  0.13698410  0.44505410     0.62370
F659        F  0.05772638  0.33540920  0.43929746    -0.22800
F660        F  0.01260437  0.32715241  0.39146923    -0.20130
F661        F  0.07867492  0.31575167  0.37943712    -0.19810
F662        F  0.99302870  0.12119457  0.44526059    -0.19860
F663        F  0.05109178  0.12636687  0.47908408    -0.20180
F664        F  0.05322436  0.11886328  0.41428736    -0.22860
C665        C  0.03455787  0.32742862  0.52889087    -0.05690
C666        C  0.99627235  0.34137331  0.51942488     0.00230
C667        C  0.96272515  0.31540844  0.52641144    -0.08340
C668        C  0.96969596  0.27362767  0.53231480    -0.05710
C669        C  0.00899722  0.25682237  0.52855441     0.00220
C670        C  0.04110154  0.28567834  0.53719124    -0.08250
C671        C  0.08234218  0.27447695  0.55253103     0.62130
H672        H  0.05919925  0.34977532  0.53030842     0.12830
H673        H  0.94371027  0.25392522  0.53684095     0.12840
C674        C  0.92009189  0.33204518  0.52826114     0.62370
F675        F  0.10434058  0.30910872  0.56403020    -0.22800
F676        F  0.10452159  0.25502404  0.52369149    -0.20130
F677        F  0.07827193  0.24987218  0.58529856    -0.19810
F678        F  0.91181952  0.35204799  0.49364082    -0.19860
F679        F  0.91648932  0.35949214  0.55937084    -0.20180
F680        F  0.89141559  0.30115587  0.53366408    -0.22860
C681        C  0.98220068  0.46297539  0.33231908    -0.05690
C682        C  0.01357711  0.48277317  0.35095802     0.00230
C683        C  0.03957177  0.50957251  0.32728212    -0.08340
C684        C  0.03368163  0.51150493  0.28619511    -0.05710
C685        C  0.00179289  0.49182653  0.26700087     0.00220
C686        C  0.97452292  0.46675196  0.29219416    -0.08250
C687        C  0.93563440  0.44228101  0.28335433     0.62130
H688        H  0.96229633  0.44361673  0.35021076     0.12830
H689        H  0.05506836  0.52880834  0.26843658     0.12840
C690        C  0.07530918  0.53632919  0.34051095     0.62370
F691        F  0.93980354  0.40178319  0.29487612    -0.22800
F692        F  0.92374456  0.44132664  0.24553655    -0.20130
F693        F  0.90422034  0.45845943  0.30548448    -0.19810
F694        F  0.11072603  0.51561724  0.33285876    -0.19860
F695        F  0.07381714  0.54818724  0.37899150    -0.20180
F696        F  0.07674974  0.57286853  0.31962213    -0.22860
C697        C  0.97947169  0.42194247  0.19548876    -0.05690
C698        C  0.00818104  0.44876319  0.21181518     0.00230
C699        C  0.04166427  0.42823740  0.22980231    -0.08340
C700        C  0.03457897  0.38893070  0.24525804    -0.05710
C701        C  0.99737513  0.36790607  0.24170200     0.00220
C702        C  0.97090369  0.38294328  0.21222800    -0.08250
C703        C  0.93201620  0.36181170  0.20016898     0.62130
H704        H  0.96021734  0.43315459  0.17349052     0.12830
H705        H  0.05837336  0.37568822  0.26248726     0.12840
C706        C  0.08419918  0.44513578  0.23770729     0.62370
F707        F  0.90765556  0.38691687  0.17816947    -0.22800
F708        F  0.91014955  0.35104147  0.23312121    -0.20130
F709        F  0.94061963  0.32810645  0.17717343    -0.19810
F710        F  0.09179714  0.44378383  0.27764135    -0.19860
F711        F  0.09176865  0.48466063  0.22552279    -0.20180
F712        F  0.11168851  0.42008584  0.21853244    -0.22860
C713        C  0.56892717  0.03793928  0.19814802    -0.05690
C714        C  0.52913716  0.03070491  0.18471550     0.00230
C715        C  0.52340873  0.04639000  0.14469062    -0.08340
C716        C  0.55389120  0.07239162  0.12675030    -0.05710
C717        C  0.59376581  0.07769977  0.14066726     0.00220
C718        C  0.60168239  0.05374797  0.17517658    -0.08250
C719        C  0.64278034  0.04316533  0.19139831     0.62130
H720        H  0.57565688  0.03280341  0.22834236     0.12830
H721        H  0.54710923  0.08734182  0.09953735     0.12840
C722        C  0.48915361  0.03424531  0.11667150     0.62370
F723        F  0.64749227  0.05940426  0.22882871    -0.22800
F724        F  0.67427387  0.05662488  0.16870906    -0.20130
F725        F  0.64546142  0.00072976  0.19359715    -0.19810
F726        F  0.45226890  0.04818155  0.12958355    -0.19860
F727        F  0.48875979  0.99217269  0.11113367    -0.20180
F728        F  0.49436927  0.05054581  0.07934727    -0.22860
C729        C  0.43577877  0.98118793  0.17717236    -0.05690
C730        C  0.45203779  0.01490335  0.19955229     0.00230
C731        C  0.42221038  0.04257550  0.21321176    -0.08340
C732        C  0.38399356  0.02575905  0.22339734    -0.05710
C733        C  0.37506572  0.98371044  0.21590206     0.00220
C734        C  0.39864468  0.96301576  0.18731302    -0.08250
C735        C  0.38792713  0.92036044  0.17093436     0.62130
H736        H  0.45588272  0.96223048  0.16038371     0.12830
H737        H  0.36195749  0.04498952  0.23816446     0.12840
C738        C  0.42466403  0.08828140  0.20477395     0.62370
F739        F  0.41562592  0.90722073  0.14284440    -0.22800
F740        F  0.35066002  0.92101758  0.15312875    -0.20130
F741        F  0.38714473  0.89176464  0.20089916    -0.19810
F742        F  0.46333775  0.10072857  0.19380359    -0.19860
F743        F  0.41227499  0.11068149  0.23732910    -0.20180
F744        F  0.39899156  0.09695723  0.17421961    -0.22860
C745        C  0.51722608  0.00286258  0.32796323    -0.05690
C746        C  0.48361526  0.02443763  0.34129251     0.00230
C747        C  0.47111360  0.05764351  0.31785485    -0.08340
C748        C  0.48444869  0.05909155  0.27774024    -0.05710
C749        C  0.50594258  0.02612272  0.26005625     0.00220
C750        C  0.52922383  0.00244838  0.28811504    -0.08250
C751        C  0.56435569  0.97283543  0.28038107     0.62130
H752        H  0.53157548  0.98212914  0.34816934     0.12830
H753        H  0.47503650  0.08382060  0.25982918     0.12840
C754        C  0.44116268  0.08844211  0.33372534     0.62370
F755        F  0.59776376  0.98765806  0.30032611    -0.22800
F756        F  0.57620441  0.96719102  0.24192782    -0.20130
F757        F  0.55430739  0.93424302  0.29501862    -0.19810
F758        F  0.45386584  0.10323157  0.36974029    -0.19860
F759        F  0.40368479  0.06954680  0.33826762    -0.20180
F760        F  0.43756690  0.12178358  0.30903320    -0.22860
C761        C  0.40209075  0.19134921  0.47740788    -0.05690
C762        C  0.43660655  0.21174167  0.46234713     0.00230
C763        C  0.46409922  0.18499485  0.44116433    -0.08340
C764        C  0.46499109  0.14359300  0.45240422    -0.05710
C765        C  0.43971669  0.12798617  0.48236510     0.00220
C766        C  0.40605399  0.15181317  0.49423414    -0.08250
C767        C  0.37758630  0.13867487  0.52750019     0.62130
H768        H  0.37507281  0.20894498  0.48221652     0.12830
H769        H  0.48789098  0.12406853  0.43935051     0.12840
C770        C  0.49606110  0.19683219  0.40999170     0.62370
F771        F  0.34503739  0.16468989  0.53090459    -0.22800
F772        F  0.39890330  0.13906015  0.56202493    -0.20130
F773        F  0.36215310  0.09952700  0.52288504    -0.19810
F774        F  0.53384190  0.18521791  0.42245194    -0.19860
F775        F  0.49855290  0.23790852  0.40086762    -0.20180
F776        F  0.48767966  0.17586010  0.37547543    -0.22860
C777        C  0.37060857  0.33914030  0.43811765    -0.05690
C778        C  0.38093465  0.34220273  0.39785383     0.00230
C779        C  0.40251642  0.30678633  0.38374911    -0.08340
C780        C  0.42275497  0.28196559  0.41131159    -0.05710
C781        C  0.42198441  0.28765848  0.45278490     0.00220
C782        C  0.39035331  0.31526547  0.46635685    -0.08250
C783        C  0.36970205  0.31716738  0.50742876     0.62130
H784        H  0.34223105  0.35178370  0.44682201     0.12830
H785        H  0.43511221  0.25412709  0.40005760     0.12840
C786        C  0.39695158  0.28634455  0.34344483     0.62370
F787        F  0.34080902  0.34753953  0.51055061    -0.22800
F788        F  0.39581503  0.32663216  0.53735901    -0.20130
F789        F  0.34930708  0.28062788  0.51430505    -0.19810
F790        F  0.43023149  0.26322764  0.33280379    -0.19860
F791        F  0.39097597  0.31361096  0.31344305    -0.20180
F792        F  0.36445131  0.25938962  0.34597976    -0.22860
C793        C  0.30284764  0.32915432  0.28082363    -0.05690
C794        C  0.28035463  0.29446280  0.29599066     0.00230
C795        C  0.28342547  0.29065207  0.33871273    -0.08340
C796        C  0.30565235  0.32104507  0.36080975    -0.05710
C797        C  0.32869119  0.35395580  0.34455387     0.00220
C798        C  0.32148750  0.36068111  0.30396985    -0.08250
C799        C  0.32538378  0.40275781  0.28498454     0.62130
H800        H  0.30532936  0.33432937  0.24978696     0.12830
H801        H  0.30670613  0.31852783  0.39233006     0.12840
C802        C  0.26736950  0.25439490  0.36342630     0.62370
F803        F  0.29425247  0.40840639  0.25878450    -0.22800
F804        F  0.36124205  0.40601426  0.26423793    -0.20130
F805        F  0.32242247  0.43399284  0.31259229    -0.19810
F806        F  0.28392858  0.21789731  0.35062683    -0.19860
F807        F  0.22590563  0.25242777  0.36319475    -0.20180
F808        F  0.27763579  0.25774031  0.40274189    -0.22860
C809        C  0.43945746  0.41169413  0.29053653    -0.05690
C810        C  0.44565095  0.45512016  0.29244208     0.00230
C811        C  0.42415509  0.47321455  0.32631236    -0.08340
C812        C  0.39497066  0.44853503  0.34793703    -0.05710
C813        C  0.39434567  0.40469213  0.34749301     0.00220
C814        C  0.42680853  0.38879698  0.32371446    -0.08250
C815        C  0.46324098  0.36853919  0.34201078     0.62130
H816        H  0.44886002  0.39374866  0.26561371     0.12830
H817        H  0.37372632  0.46408793  0.36696472     0.12840
C818        C  0.43347071  0.51522463  0.34503905     0.62370
F819        F  0.49825205  0.39162904  0.33586366    -0.22800
F820        F  0.46963042  0.33027673  0.32553570    -0.20130
F821        F  0.45914214  0.36567596  0.38181669    -0.19810
F822        F  0.41469154  0.51970854  0.38143747    -0.19860
F823        F  0.42026597  0.54732251  0.32263488    -0.20180
F824        F  0.47430351  0.51876567  0.35192675    -0.22860
C825        C  0.47857153  0.42434135  0.15491970    -0.05690
C826        C  0.45100421  0.44834895  0.13504731     0.00230
C827        C  0.41616332  0.46080194  0.15546825    -0.08340
C828        C  0.41759118  0.46133109  0.19702035    -0.05710
C829        C  0.45388863  0.45287808  0.21682494     0.00220
C830        C  0.48025615  0.42472262  0.19580873    -0.08250
C831        C  0.51278797  0.39648395  0.21188110     0.62130
H832        H  0.50188249  0.40834270  0.13834933     0.12830
H833        H  0.39103945  0.46873434  0.21322989     0.12840
C834        C  0.37809527  0.47058767  0.13354504     0.62370
F835        F  0.50584539  0.35692174  0.19771211    -0.22800
F836        F  0.51416215  0.39373305  0.25210755    -0.20130
F837        F  0.55044216  0.40955409  0.19839327    -0.19810
F838        F  0.36729568  0.43702970  0.11043394    -0.19860
F839        F  0.38460031  0.50450808  0.10981227    -0.20180
F840        F  0.34618079  0.47856626  0.15893673    -0.22860
C841        C  0.15596404  0.52634371  0.52339025    -0.05690
C842        C  0.13322825  0.51107758  0.49305462     0.00230
C843        C  0.15207775  0.48484255  0.46497418    -0.08340
C844        C  0.19378838  0.47829428  0.46664754    -0.05710
C845        C  0.21733088  0.48953477  0.49899983     0.00220
C846        C  0.19735159  0.51798887  0.52710660    -0.08250
C847        C  0.21364611  0.54526613  0.56049256     0.62130
H848        H  0.14107437  0.54744844  0.54368146     0.12830
H849        H  0.20818567  0.46567398  0.44101810     0.12840
C850        C  0.12847357  0.46259334  0.43344276     0.62370
F851        F  0.20792658  0.58618133  0.55113595    -0.22800
F852        F  0.25312847  0.54143738  0.56909504    -0.20130
F853        F  0.19161493  0.53780643  0.59463144    -0.19810
F854        F  0.12002900  0.48991123  0.40420630    -0.19860
F855        F  0.09373549  0.44537009  0.44976371    -0.20180
F856        F  0.14961483  0.43089183  0.41619376    -0.22860
C857        C  0.32590697  0.43967502  0.47024881    -0.05690
C858        C  0.28312551  0.44017728  0.46941963     0.00230
C859        C  0.26716201  0.41896672  0.43494882    -0.08340
C860        C  0.29296344  0.40957404  0.40191790    -0.05710
C861        C  0.33573073  0.40805860  0.40333232     0.00220
C862        C  0.35204056  0.42688077  0.43879375    -0.08250
C863        C  0.39656555  0.43333005  0.44800750     0.62130
H864        H  0.33977651  0.45142654  0.49661111     0.12830
H865        H  0.27837541  0.39758539  0.37597466     0.12840
C866        C  0.23066955  0.38966657  0.43524954     0.62370
F867        F  0.40557128  0.41344329  0.48261122    -0.22800
F868        F  0.40425953  0.47503887  0.45314044    -0.20130
F869        F  0.42241397  0.41927572  0.41951034    -0.19810
F870        F  0.20232142  0.39818805  0.46344454    -0.19860
F871        F  0.24398103  0.35005620  0.44158413    -0.20180
F872        F  0.21175142  0.38988988  0.39914912    -0.22860
C873        C  0.97491498  0.71033564  0.42412989    -0.05690
C874        C  0.97476086  0.73548378  0.45770824     0.00230
C875        C  0.95981697  0.71400511  0.49228661    -0.08340
C876        C  0.97388333  0.67433114  0.49830783    -0.05710
C877        C  0.98971070  0.65229745  0.46686850     0.00220
C878        C  0.98183484  0.66767799  0.42805398    -0.08250
C879        C  0.97610864  0.63979209  0.39216059     0.62130
H880        H  0.97431043  0.72436710  0.39533795     0.12830
H881        H  0.96985283  0.65971094  0.52668344     0.12840
C882        C  0.92580767  0.72682766  0.51997930     0.62370
F883        F  0.95728492  0.66040734  0.36210748    -0.22800
F884        F  0.95182118  0.60632504  0.40221215    -0.20130
F885        F  0.01249169  0.62583554  0.37753821    -0.19810
F886        F  0.89236058  0.70208917  0.51233978    -0.19860
F887        F  0.91432717  0.76700701  0.51674221    -0.20180
F888        F  0.93677764  0.72036216  0.55838010    -0.22860
C889        C  0.69610425  0.94729966  0.42732144    -0.05690
C890        C  0.71321164  0.95019205  0.46481881     0.00230
C891        C  0.68785703  0.93420906  0.49697561    -0.08340
C892        C  0.64640113  0.93699043  0.49306847    -0.05710
C893        C  0.62961521  0.94744931  0.45766997     0.00220
C894        C  0.65400268  0.94762087  0.42293093    -0.08250
C895        C  0.63647213  0.95049086  0.38195641     0.62130
H896        H  0.71569867  0.95066272  0.40178291     0.12830
H897        H  0.62673364  0.93067314  0.51816957     0.12840
C898        C  0.69866651  0.91010899  0.53388262     0.62370
F899        F  0.66630559  0.95392677  0.35321633    -0.22800
F900        F  0.61229217  0.98467705  0.37955909    -0.20130
F901        F  0.61380083  0.91533001  0.37386150    -0.19810
F902        F  0.68653171  0.93055964  0.56760345    -0.19860
F903        F  0.73829499  0.90141267  0.53727551    -0.20180
F904        F  0.67832798  0.87245812  0.53302304    -0.22860
C905        C  0.91968700  0.93793310  0.33792093    -0.05690
C906        C  0.89775985  0.90384328  0.32238003     0.00230
C907        C  0.90477098  0.89648900  0.28105127    -0.08340
C908        C  0.91953967  0.92889859  0.25707340    -0.05710
C909        C  0.94258719  0.96268966  0.27175328     0.00220
C910        C  0.94244697  0.96672978  0.31450263    -0.08250
C911        C  0.96440027  0.00077214  0.33734210     0.62130
H912        H  0.91787953  0.94202232  0.36948645     0.12830
H913        H  0.91761915  0.92381960  0.22576331     0.12840
C914        C  0.91010463  0.85359939  0.26323073     0.62370
F915        F  0.96168594  0.99535621  0.37768166    -0.22800
F916        F  0.94772465  0.03855358  0.32984637    -0.20130
F917        F  0.00487653  0.00101383  0.32811205    -0.19810
F918        F  0.87425595  0.83839714  0.24943238    -0.19860
F919        F  0.92707563  0.82764256  0.29014638    -0.20180
F920        F  0.93585172  0.85336776  0.23112984    -0.22860
C921        C  0.94589959  0.85502462  0.37488857    -0.05690
C922        C  0.90282331  0.85018149  0.37995801     0.00230
C923        C  0.89355887  0.81697594  0.40777408    -0.08340
C924        C  0.92399310  0.80146449  0.43297601    -0.05710
C925        C  0.96629893  0.80762794  0.42900039     0.00220
C926        C  0.97660535  0.83216764  0.39492727    -0.08250
C927        C  0.01808710  0.83112493  0.37493121     0.62130
H928        H  0.95689859  0.87453788  0.35190436     0.12830
H929        H  0.91397075  0.77867688  0.45334676     0.12840
C930        C  0.85452304  0.79053656  0.41114313     0.62370
F931        F  0.01958207  0.85299410  0.34037643    -0.22800
F932        F  0.02690193  0.79119555  0.36450847    -0.20130
F933        F  0.04769837  0.84770639  0.39853224    -0.19810
F934        F  0.86262702  0.75099742  0.39797562    -0.19860
F935        F  0.82191838  0.80431115  0.39053607    -0.20180
F936        F  0.84275311  0.78789659  0.45030527    -0.22860
C937        C  0.80798042  0.96949454  0.40969181    -0.05690
C938        C  0.78742167  0.94846859  0.44069493     0.00230
C939        C  0.79557812  0.90471297  0.44024864    -0.08340
C940        C  0.82640682  0.88890868  0.41521021    -0.05710
C941        C  0.84263222  0.90672456  0.38076348     0.00220
C942        C  0.83167506  0.95058292  0.37875506    -0.08250
C943        C  0.83927420  0.98194204  0.34593856     0.62130
H944        H  0.80354468  0.00225829  0.40744194     0.12830
H945        H  0.83897675  0.86171780  0.42522359     0.12840
C946        C  0.77510294  0.87106284  0.46500026     0.62370
F947        F  0.80343556  0.00111138  0.33696192    -0.22800
F948        F  0.85302298  0.96643368  0.31129787    -0.20130
F949        F  0.86638225  0.01178749  0.35894056    -0.19810
F950        F  0.73411516  0.87433950  0.46676583    -0.19860
F951        F  0.79227254  0.87002833  0.50157896    -0.20180
F952        F  0.78010008  0.83241814  0.44862000    -0.22860
C953        C  0.85578919  0.80378459  0.32079530    -0.05690
C954        C  0.84254004  0.84489150  0.32511058     0.00230
C955        C  0.80818301  0.85350769  0.29999719    -0.08340
C956        C  0.79166576  0.82220631  0.27426003    -0.05710
C957        C  0.80603013  0.78181241  0.26977025     0.00220
C958        C  0.84189001  0.77385237  0.29305471    -0.08250
C959        C  0.87188560  0.73853005  0.28629635     0.62130
H960        H  0.88154960  0.79571883  0.33714569     0.12830
H961        H  0.76620908  0.82914728  0.25623836     0.12840
C962        C  0.78910149  0.89537573  0.29562769     0.62370
F963        F  0.90664789  0.74210180  0.30848704    -0.22800
F964        F  0.88532173  0.73965357  0.24787219    -0.20130
F965        F  0.85569201  0.70060897  0.29635053    -0.19810
F966        F  0.81484069  0.92008699  0.27397112    -0.19860
F967        F  0.77955068  0.91225350  0.33158368    -0.20180
F968        F  0.75319398  0.89378246  0.27517958    -0.22860
C969        C  0.56838171  0.27311079  0.47177866    -0.05690
C970        C  0.57964146  0.24003361  0.49560057     0.00230
C971        C  0.55015123  0.21431963  0.51206053    -0.08340
C972        C  0.51026276  0.22176417  0.50291467    -0.05710
C973        C  0.49663591  0.25514994  0.47883904     0.00220
C974        C  0.52773152  0.28246807  0.46401737    -0.08250
C975        C  0.52247051  0.32101629  0.43999162     0.62130
H976        H  0.59225656  0.29174905  0.45837598     0.12830
H977        H  0.48805366  0.20111776  0.51595329     0.12840
C978        C  0.56071661  0.17777124  0.53763815     0.62370
F979        F  0.54604053  0.35282801  0.45523090    -0.22800
F980        F  0.48384151  0.33434048  0.44019727    -0.20130
F981        F  0.53470627  0.31377432  0.40154953    -0.19810
F982        F  0.58162135  0.19162237  0.57027592    -0.19860
F983        F  0.58441279  0.15055390  0.51644462    -0.20180
F984        F  0.52674599  0.15629367  0.55079197    -0.22860
C985        C  0.75669843  0.09099581  0.48673748    -0.05690
C986        C  0.71700413  0.09978590  0.47570801     0.00230
C987        C  0.70036379  0.07454434  0.44475656    -0.08340
C988        C  0.71986293  0.03719880  0.43411061    -0.05710
C989        C  0.75264448  0.02185501  0.45551621     0.00220
C990        C  0.77586481  0.05392933  0.47509914    -0.08250
C991        C  0.81967761  0.04997859  0.48694794     0.62130
H992        H  0.77271623  0.11272585  0.50551810     0.12830
H993        H  0.70738965  0.01893201  0.41076310     0.12840
C994        C  0.66071823  0.08421977  0.42465624     0.62370
F995        F  0.84208241  0.08155152  0.46980729    -0.22800
F996        F  0.83635786  0.01321722  0.47514742    -0.20130
F997        F  0.82291361  0.05350769  0.52737188    -0.19810
F998        F  0.66353934  0.12175056  0.40584867    -0.19860
F999        F  0.62959447  0.08481553  0.45216147    -0.20180
F1000       F  0.65062236  0.05514974  0.39635152    -0.22860
C1001       C  0.95379921  0.22081626  0.46762128    -0.05690
C1002       C  0.97115125  0.19592434  0.49748910     0.00230
C1003       C  0.94424665  0.16620770  0.51500399    -0.08340
C1004       C  0.90257865  0.17482205  0.51457315    -0.05710
C1005       C  0.88737171  0.20679793  0.49166380     0.00220
C1006       C  0.91249906  0.22626997  0.46393584    -0.08250
C1007       C  0.89653917  0.25606278  0.43351373     0.62130
H1008       H  0.97232630  0.24275872  0.45212383     0.12830
H1009       H  0.88170228  0.15643072  0.53222588     0.12840
C1010       C  0.95534537  0.12488881  0.53221095     0.62370
F1011       F  0.92724307  0.27373131  0.41099544    -0.22800
F1012       F  0.87569152  0.28759013  0.45180331    -0.20130
F1013       F  0.87090118  0.23504383  0.40825958    -0.19810
F1014       F  0.94469500  0.12325521  0.57162573    -0.19860
F1015       F  0.99553972  0.11596154  0.52810680    -0.20180
F1016       F  0.93394488  0.09415555  0.51267481    -0.22860
C1017       C  0.71993490  0.30648506  0.69803662    -0.05690
C1018       C  0.75765795  0.29464547  0.71373383     0.00230
C1019       C  0.78526480  0.28525301  0.68282992    -0.08340
C1020       C  0.77108356  0.26100322  0.65111268    -0.05710
C1021       C  0.72986884  0.26178514  0.64075557     0.00220
C1022       C  0.70484336  0.28890440  0.66261038    -0.08250
C1023       C  0.66338831  0.29999902  0.64788270     0.62130
H1024       H  0.70322660  0.33085407  0.71182509     0.12830
H1025       H  0.79290625  0.24997246  0.62958395     0.12840
C1026       C  0.81689599  0.31715976  0.67113700     0.62370
F1027       F  0.64427912  0.32756837  0.67281805    -0.22800
F1028       F  0.63959284  0.26469966  0.64509589    -0.20130
F1029       F  0.66675283  0.31789060  0.61119154    -0.19810
F1030       F  0.85353802  0.29854603  0.66390557    -0.19860
F1031       F  0.82116755  0.34713328  0.69990496    -0.20180
F1032       F  0.80530627  0.33667932  0.63705936    -0.22860
C1033       C  0.75181888  0.01615361  0.57327995    -0.05690
C1034       C  0.76802578  0.98421467  0.59371885     0.00230
C1035       C  0.79276963  0.95587763  0.57276630    -0.08340
C1036       C  0.79378296  0.95880674  0.53127999    -0.05710
C1037       C  0.76162131  0.97862147  0.51246547     0.00220
C1038       C  0.73681688  0.00585644  0.53703570    -0.08250
C1039       C  0.69361979  0.02231984  0.53245122     0.62130
H1040       H  0.73802507  0.04141564  0.58936612     0.12830
H1041       H  0.81488681  0.94051703  0.51445912     0.12840
C1042       C  0.81692670  0.92237502  0.59173513     0.62370
F1043       F  0.66835818  0.00350883  0.55974902    -0.22800
F1044       F  0.67635935  0.01661641  0.49654053    -0.20130
F1045       F  0.69258495  0.06381795  0.54155174    -0.19810
F1046       F  0.80986589  0.91999899  0.63153034    -0.19860
F1047       F  0.85765046  0.92998134  0.58518040    -0.20180
F1048       F  0.80686631  0.88443999  0.57566310    -0.22860
C1049       C  0.79945937  0.15554111  0.74278610    -0.05690
C1050       C  0.76784990  0.13985504  0.71907124     0.00230
C1051       C  0.73943885  0.16731049  0.70487578    -0.08340
C1052       C  0.74252008  0.20820344  0.71708258    -0.05710
C1053       C  0.77179276  0.22525232  0.74373617     0.00220
C1054       C  0.80021854  0.19615008  0.75847069    -0.08250
C1055       C  0.82889079  0.20101333  0.79297856     0.62130
H1056       H  0.82168973  0.13416372  0.75328409     0.12830
H1057       H  0.71750878  0.22687316  0.70925863     0.12840
C1058       C  0.70385983  0.15394627  0.67929047     0.62370
F1059       F  0.82121891  0.16990048  0.81984717    -0.22800
F1060       F  0.82563135  0.23731167  0.81330314    -0.20130
F1061       F  0.86820847  0.19688193  0.77953913    -0.19810
F1062       F  0.67721228  0.12950136  0.70082005    -0.19860
F1063       F  0.71773273  0.13251631  0.64660303    -0.20180
F1064       F  0.68224224  0.18700909  0.66580203    -0.22860
C1065       C  0.79269031  0.23268890  0.22249875    -0.05690
C1066       C  0.76960943  0.19691762  0.23202133     0.00230
C1067       C  0.79308513  0.16171718  0.23965154    -0.08340
C1068       C  0.83237696  0.16785989  0.25443609    -0.05710
C1069       C  0.85026224  0.20755359  0.25732032     0.00220
C1070       C  0.83134433  0.23986877  0.23715433    -0.08250
C1071       C  0.85084354  0.28169274  0.22994124     0.62130
H1072       H  0.77832932  0.25792779  0.20839957     0.12830
H1073       H  0.84995983  0.14131597  0.26209289     0.12840
C1074       C  0.78260972  0.11950853  0.22309214     0.62370
F1075       F  0.82364141  0.31042763  0.21690558    -0.22800
F1076       F  0.87996822  0.27752379  0.20126677    -0.20130
F1077       F  0.86739903  0.29735267  0.26402280    -0.19810
F1078       F  0.80282153  0.11423447  0.18763257    -0.19860
F1079       F  0.74191516  0.11456441  0.21705362    -0.20180
F1080       F  0.79401470  0.08903175  0.24858446    -0.22860
C1081       C  0.67171268  0.17029849  0.13911666    -0.05690
C1082       C  0.64402983  0.13931338  0.15087131     0.00230
C1083       C  0.63331467  0.14219124  0.19203113    -0.08340
C1084       C  0.66241212  0.15741601  0.21860720    -0.05710
C1085       C  0.69545911  0.18349126  0.20785573     0.00220
C1086       C  0.69849888  0.19157583  0.16569632    -0.08250
C1087       C  0.73106017  0.21863620  0.14610790     0.62130
H1088       H  0.67385249  0.17565548  0.10788253     0.12830
H1089       H  0.65547652  0.15189556  0.24917663     0.12840
C1090       C  0.59073846  0.14058185  0.21088389     0.62370
F1091       F  0.72557294  0.22209935  0.10594101    -0.22800
F1092       F  0.76851224  0.20148784  0.15089313    -0.20130
F1093       F  0.73062661  0.25826844  0.16057481    -0.19810
F1094       F  0.58980140  0.11355425  0.24214039    -0.19860
F1095       F  0.55935239  0.13048484  0.18650950    -0.20180
F1096       F  0.58209664  0.17929950  0.22568181    -0.22860
C1097       C  0.73170313  0.14910966  0.29994288    -0.05690
C1098       C  0.71065577  0.18253263  0.28404352     0.00230
C1099       C  0.68584415  0.20383975  0.31240166    -0.08340
C1100       C  0.69886471  0.20544482  0.35126514    -0.05710
C1101       C  0.73290050  0.18378189  0.36235378     0.00220
C1102       C  0.74592890  0.15088045  0.33860380    -0.08250
C1103       C  0.77698893  0.12077782  0.35293032     0.62130
H1104       H  0.73889498  0.12297729  0.28255283     0.12830
H1105       H  0.68355710  0.22505286  0.37253051     0.12840
C1106       C  0.64717585  0.22646049  0.30396955     0.62370
F1107       F  0.78583490  0.09102173  0.32500236    -0.22800
F1108       F  0.76269232  0.10104045  0.38616661    -0.20130
F1109       F  0.81231719  0.14194379  0.36194542    -0.19810
F1110       F  0.61644620  0.21053958  0.32753725    -0.19860
F1111       F  0.63519932  0.22246099  0.26557269    -0.20180
F1112       F  0.65209653  0.26793594  0.31278992    -0.22860
C1113       C  0.75792997  0.64250730  0.25739517    -0.05690
C1114       C  0.77539636  0.62691342  0.22282877     0.00230
C1115       C  0.81221953  0.64488012  0.20918168    -0.08340
C1116       C  0.82230778  0.68430163  0.22311648    -0.05710
C1117       C  0.79628800  0.70569777  0.24879290     0.00220
C1118       C  0.77232689  0.67936864  0.27362829    -0.08250
C1119       C  0.76168253  0.68823019  0.31613613     0.62130
H1120       H  0.73566767  0.62421618  0.27357548     0.12830
H1121       H  0.84847015  0.69915480  0.21056334     0.12840
C1122       C  0.84207521  0.62393506  0.18124158     0.62370
F1123       F  0.76993495  0.65392488  0.33843400    -0.22800
F1124       F  0.72099746  0.69639922  0.31998982    -0.20130
F1125       F  0.78434026  0.72047710  0.33111642    -0.19810
F1126       F  0.82607678  0.58940820  0.16269362    -0.19860
F1127       F  0.87549079  0.61247772  0.20229639    -0.20180
F1128       F  0.85477368  0.65096082  0.15219201    -0.22860
C1129       C  0.57744567  0.50695438  0.21489777    -0.05690
C1130       C  0.60194614  0.48814626  0.24116985     0.00230
C1131       C  0.58344854  0.46555620  0.27260899    -0.08340
C1132       C  0.54094754  0.46592931  0.27795313    -0.05710
C1133       C  0.51526693  0.48033180  0.24870690     0.00220
C1134       C  0.53553458  0.50097085  0.21514971    -0.08250
C1135       C  0.51887306  0.51490991  0.17570816     0.62130
H1136       H  0.59227837  0.52228579  0.19016654     0.12830
H1137       H  0.52757853  0.45164385  0.30363933     0.12840
C1138       C  0.60641320  0.43753181  0.29898858     0.62370
F1139       F  0.53430613  0.55329030  0.16599476    -0.22800
F1140       F  0.47800481  0.51727066  0.17390099    -0.20130
F1141       F  0.53239779  0.48843251  0.14655138    -0.19810
F1142       F  0.64726512  0.44517426  0.29660264    -0.19860
F1143       F  0.59874050  0.39702360  0.28811932    -0.20180
F1144       F  0.59385579  0.44307540  0.33753595    -0.22860
C1145       C  0.73855213  0.31494709  0.28454407    -0.05690
C1146       C  0.71692834  0.33695407  0.25813901     0.00230
C1147       C  0.69236947  0.31567259  0.22984512    -0.08340
C1148       C  0.69235139  0.27251513  0.22921540    -0.05710
C1149       C  0.71895250  0.24970316  0.25179049     0.00220
C1150       C  0.74219057  0.27255454  0.28156816    -0.08250
C1151       C  0.77286720  0.25802800  0.31143185     0.62130
H1152       H  0.75484142  0.33187109  0.30729060     0.12830
H1153       H  0.67269081  0.25641742  0.20910309     0.12840
C1154       C  0.66858616  0.33686645  0.19787379     0.62370
F1155       F  0.80824466  0.28077936  0.30798494    -0.22800
F1156       F  0.78315850  0.21770690  0.30817878    -0.20130
F1157       F  0.75810890  0.26596872  0.34880183    -0.19810
F1158       F  0.69507412  0.35883098  0.17412489    -0.19860
F1159       F  0.63966809  0.36227239  0.21413408    -0.20180
F1160       F  0.64837514  0.30911912  0.17362341    -0.22860
C1161       C  0.88151220  0.49317656  0.20349378    -0.05690
C1162       C  0.87047588  0.50700512  0.24176475     0.00230
C1163       C  0.89788966  0.53575689  0.25978128    -0.08340
C1164       C  0.93792548  0.53704803  0.24625016    -0.05710
C1165       C  0.95302555  0.51185497  0.21536283     0.00220
C1166       C  0.92214147  0.49810063  0.18883036    -0.08250
C1167       C  0.92874118  0.49611280  0.14473447     0.62130
H1168       H  0.85881236  0.47851603  0.18519230     0.12830
H1169       H  0.95903780  0.55329073  0.26448621     0.12840
C1170       C  0.88725186  0.56382098  0.29473888     0.62370
F1171       F  0.90918864  0.52874536  0.12779521    -0.22800
F1172       F  0.91272609  0.45983280  0.12939637    -0.20130
F1173       F  0.96916199  0.49895918  0.13466171    -0.19810
F1174       F  0.87971292  0.54058657  0.32806896    -0.19860
F1175       F  0.85394804  0.58713134  0.28600715    -0.20180
F1176       F  0.91817210  0.59148612  0.30369856    -0.22860
C1177       C  0.80228994  0.46958286  0.47926255    -0.05690
C1178       C  0.78193352  0.48819954  0.51276823     0.00230
C1179       C  0.80972946  0.50318271  0.54220113    -0.08340
C1180       C  0.85070820  0.49122254  0.54018388    -0.05710
C1181       C  0.86807477  0.47187161  0.50710078     0.00220
C1182       C  0.84364237  0.46241355  0.47524110    -0.08250
C1183       C  0.86076855  0.44472129  0.43695022     0.62130
H1184       H  0.78614386  0.46343488  0.45296940     0.12830
H1185       H  0.87069966  0.50045577  0.56388159     0.12840
C1186       C  0.80296713  0.53584956  0.57320385     0.62370
F1187       F  0.83094983  0.43448964  0.41020053    -0.22800
F1188       F  0.88200195  0.40939652  0.44446972    -0.20130
F1189       F  0.88627102  0.47349926  0.41940211    -0.19810
F1190       F  0.80902766  0.51952964  0.61008629    -0.19860
F1191       F  0.76588501  0.55249252  0.57154597    -0.20180
F1192       F  0.83054535  0.56789912  0.56764778    -0.22860
C1193       C  0.69779915  0.49716932  0.44222215    -0.05690
C1194       C  0.72872354  0.51007966  0.46763324     0.00230
C1195       C  0.75693307  0.53918267  0.45156514    -0.08340
C1196       C  0.76817966  0.53337693  0.41250081    -0.05710
C1197       C  0.74531741  0.50696345  0.38846478     0.00220
C1198       C  0.70653534  0.49400736  0.40185540    -0.08250
C1199       C  0.67591233  0.47509757  0.37461244     0.62130
H1200       H  0.67104682  0.48226092  0.45449979     0.12830
H1201       H  0.79366128  0.55075100  0.40043515     0.12840
C1202       C  0.77474285  0.57589630  0.47321063     0.62370
F1203       F  0.64016520  0.46567112  0.39427418    -0.22800
F1204       F  0.69099079  0.43912713  0.35856647    -0.20130
F1205       F  0.66781387  0.50287808  0.34520073    -0.19810
F1206       F  0.81501346  0.56957969  0.48097876    -0.19860
F1207       F  0.75410893  0.58401436  0.50762071    -0.20180
F1208       F  0.77181104  0.61052889  0.44995975    -0.22860
C1209       C  0.67584341  0.54805247  0.51817854    -0.05690
C1210       C  0.70101282  0.51803391  0.53706857     0.00230
C1211       C  0.69352647  0.51887130  0.57942435    -0.08340
C1212       C  0.66537114  0.54771629  0.59745294    -0.05710
C1213       C  0.63899983  0.57491084  0.57705699     0.00220
C1214       C  0.64440640  0.57264055  0.53479616    -0.08250
C1215       C  0.61771218  0.59391375  0.50451628     0.62130
H1216       H  0.68100732  0.55533936  0.48819494     0.12830
H1217       H  0.66300606  0.54801750  0.62928406     0.12840
C1218       C  0.71607206  0.49342457  0.60903524     0.62370
F1219       F  0.62674357  0.58322749  0.46587180    -0.22800
F1220       F  0.62232367  0.63598520  0.50645297    -0.20130
F1221       F  0.57808829  0.58218837  0.50978912    -0.19810
F1222       F  0.73592307  0.51947078  0.63505557    -0.19860
F1223       F  0.74378912  0.46764952  0.59163626    -0.20180
F1224       F  0.68911239  0.47024392  0.63118432    -0.22860
C1225       C  0.72994610  0.41843357  0.46634683    -0.05690
C1226       C  0.72251244  0.44004230  0.50314889     0.00230
C1227       C  0.71905622  0.41183658  0.53467617    -0.08340
C1228       C  0.74048459  0.37409308  0.53324714    -0.05710
C1229       C  0.75382814  0.35633391  0.49723021     0.00220
C1230       C  0.74541084  0.37805936  0.46277767    -0.08250
C1231       C  0.75513151  0.35995998  0.42224279     0.62130
H1232       H  0.72952960  0.43355644  0.43901353     0.12830
H1233       H  0.74016079  0.35507360  0.55929141     0.12840
C1234       C  0.67910037  0.40872495  0.55603964     0.62370
F1235       F  0.75061069  0.38813773  0.39232829    -0.22800
F1236       F  0.72941679  0.32692420  0.41462493    -0.20130
F1237       F  0.79471555  0.34692148  0.42091017    -0.19810
F1238       F  0.65644299  0.44312532  0.54941857    -0.19860
F1239       F  0.68481797  0.40319567  0.59576895    -0.20180
F1240       F  0.65741260  0.37504678  0.54178944    -0.22860
C1241       C  0.43672149  0.64695048  0.96930875    -0.05690
C1242       C  0.43380102  0.63384654  0.00883786     0.00230
C1243       C  0.41956846  0.66290106  0.03618937    -0.08340
C1244       C  0.41697751  0.70490424  0.02453105    -0.05710
C1245       C  0.43536745  0.72037656  0.98893634     0.00220
C1246       C  0.43988043  0.68911627  0.95880947    -0.08250
C1247       C  0.45105170  0.69604967  0.91570188     0.62130
H1248       H  0.44206436  0.62426419  0.94650432     0.12830
H1249       H  0.40369395  0.72485958  0.04565225     0.12840
C1250       C  0.41112562  0.65032212  0.07830107     0.62370
F1251       F  0.48822743  0.67873308  0.90778202    -0.22800
F1252       F  0.45309755  0.73655722  0.90456965    -0.20130
F1253       F  0.42242362  0.67664183  0.89236003    -0.19810
F1254       F  0.44647427  0.63686470  0.09455574    -0.19860
F1255       F  0.38306849  0.61855308  0.07956038    -0.20180
F1256       F  0.39663780  0.68258565  0.10095530    -0.22860
C1257       C  0.51133009  0.00199578  0.68923263    -0.05690
C1258       C  0.48451516  0.97023916  0.70424707     0.00230
C1259       C  0.46684925  0.94334455  0.67550292    -0.08340
C1260       C  0.47608281  0.95058540  0.63486474    -0.05710
C1261       C  0.50213198  0.98304447  0.62224600     0.00220
C1262       C  0.52019141  0.00895445  0.64994872    -0.08250
C1263       C  0.54835727  0.04467871  0.63819437     0.62130
H1264       H  0.52594445  0.02258814  0.70976868     0.12830
H1265       H  0.46174611  0.93189350  0.61234468     0.12840
C1266       C  0.43857633  0.90788697  0.68609319     0.62370
F1267       F  0.56735564  0.06249762  0.67032832    -0.22800
F1268       F  0.52664502  0.07494851  0.61994569    -0.20130
F1269       F  0.57807323  0.03097485  0.61255913    -0.19810
F1270       F  0.40235129  0.92300376  0.69987035    -0.19860
F1271       F  0.45560586  0.88334584  0.71418105    -0.20180
F1272       F  0.43029514  0.88307024  0.65375594    -0.22860
C1273       C  0.54895627  0.93256978  0.73005621    -0.05690
C1274       C  0.53134352  0.96136074  0.75742954     0.00230
C1275       C  0.56024994  0.99059919  0.77233238    -0.08340
C1276       C  0.59636166  0.99947692  0.75056234    -0.05710
C1277       C  0.60672072  0.97833572  0.71545333     0.00220
C1278       C  0.58188445  0.94387351  0.70481010    -0.08250
C1279       C  0.58542094  0.92302007  0.66411817     0.62130
H1280       H  0.52975485  0.90779401  0.71975186     0.12830
H1281       H  0.61735487  0.02233226  0.76215681     0.12840
C1282       C  0.55947555  0.00564244  0.81442171     0.62370
F1283       F  0.55318555  0.89649592  0.65673696    -0.22800
F1284       F  0.62024399  0.90049112  0.66002882    -0.20130
F1285       F  0.58594351  0.95253033  0.63512877    -0.19810
F1286       F  0.59282648  0.99142706  0.83332385    -0.19860
F1287       F  0.52603643  0.99106692  0.83471875    -0.20180
F1288       F  0.56149545  0.04816623  0.81586148    -0.22860
C1289       C  0.30612287  0.89347007  0.92216139    -0.05690
C1290       C  0.33400770  0.91026278  0.89465904     0.00230
C1291       C  0.33686159  0.95469742  0.89840870    -0.08340
C1292       C  0.30491823  0.97757412  0.91781219    -0.05710
C1293       C  0.27441443  0.96084425  0.94414303     0.00220
C1294       C  0.28232949  0.91635900  0.95029821    -0.08250
C1295       C  0.27542552  0.88843110  0.98650784     0.62130
H1296       H  0.30511300  0.86053104  0.92413280     0.12830
H1297       H  0.30689730  0.01050925  0.91411189     0.12840
C1298       C  0.37392133  0.98063101  0.88728342     0.62370
F1299       F  0.30956385  0.86512660  0.99289301    -0.22800
F1300       F  0.24402284  0.86085876  0.97949833    -0.20130
F1301       F  0.26984047  0.90773646  0.02173636    -0.19810
F1302       F  0.36745657  0.00145205  0.85269643    -0.19860
F1303       F  0.40845524  0.95791116  0.88402594    -0.20180
F1304       F  0.38133539  0.00963574  0.91656677    -0.22860
C1305       C  0.39510369  0.78259326  0.93855777    -0.05690
C1306       C  0.43145949  0.79697651  0.95672615     0.00230
C1307       C  0.44002191  0.83979587  0.94630061    -0.08340
C1308       C  0.41471391  0.86245601  0.91955112    -0.05710
C1309       C  0.38084466  0.84668399  0.89824962     0.00220
C1310       C  0.36957370  0.80510678  0.91193091    -0.08250
C1311       C  0.33065254  0.78035547  0.90325984     0.62130
H1312       H  0.38520477  0.75169459  0.94567749     0.12830
H1313       H  0.42303121  0.89418469  0.91409700     0.12840
C1314       C  0.47530824  0.86570003  0.96109958     0.62370
F1315       F  0.31546600  0.76354930  0.93788613    -0.22800
F1316       F  0.33968196  0.74828176  0.87776717    -0.20130
F1317       F  0.29927013  0.80190027  0.88829060    -0.19810
F1318       F  0.49780794  0.88000077  0.92928112    -0.19860
F1319       F  0.50083218  0.84512714  0.98482255    -0.20180
F1320       F  0.46077277  0.89918862  0.98202066    -0.22860
C1321       C  0.43140084  0.88840856  0.83168416    -0.05690
C1322       C  0.38998179  0.89968373  0.83370589     0.00230
C1323       C  0.38023514  0.92812898  0.80233910    -0.08340
C1324       C  0.41130399  0.94712829  0.77827598    -0.05710
C1325       C  0.45320816  0.93886741  0.77819632     0.00220
C1326       C  0.46247161  0.90606749  0.80581032    -0.08250
C1327       C  0.50349300  0.88538600  0.80763300     0.62130
H1328       H  0.43941607  0.86298934  0.84976330     0.12830
H1329       H  0.40194715  0.96902832  0.75735799     0.12840
C1330       C  0.33734058  0.93749876  0.78971896     0.62370
F1331       F  0.50379260  0.85379536  0.83458024    -0.22800
F1332       F  0.53344194  0.91271539  0.81894116    -0.20130
F1333       F  0.51269328  0.86753408  0.77187441    -0.19810
F1334       F  0.33547641  0.96933477  0.76290070    -0.19860
F1335       F  0.31428425  0.94959937  0.82107302    -0.20180
F1336       F  0.32070357  0.90328765  0.77148316    -0.22860
C1337       C  0.66295114  0.75808378  0.25703898    -0.05690
C1338       C  0.65003083  0.72752875  0.23007478     0.00230
C1339       C  0.67854673  0.70539398  0.20885473    -0.08340
C1340       C  0.71900553  0.71546654  0.21466861    -0.05710
C1341       C  0.73425792  0.74566797  0.24220198     0.00220
C1342       C  0.70398015  0.76520453  0.26649619    -0.08250
C1343       C  0.70939861  0.78928962  0.30493378     0.62130
H1344       H  0.64002317  0.77473435  0.27342959     0.12830
H1345       H  0.73991312  0.69719054  0.19820327     0.12840
C1346       C  0.66655008  0.67029412  0.18109070     0.62370
F1347       F  0.68005432  0.77720082  0.33201908    -0.22800
F1348       F  0.70472359  0.83085412  0.29823286    -0.20130
F1349       F  0.74527644  0.78271719  0.32320959    -0.19810
F1350       F  0.64544841  0.68570599  0.14973166    -0.19860
F1351       F  0.64267793  0.64168711  0.20093360    -0.20180
F1352       F  0.69959865  0.64979757  0.16601331    -0.22860
C1353       C  0.44393027  0.58111928  0.21209961    -0.05690
C1354       C  0.48330326  0.59755369  0.21822454     0.00230
C1355       C  0.50259279  0.58679761  0.25382225    -0.08340
C1356       C  0.48759299  0.55217821  0.27388287    -0.05710
C1357       C  0.45805355  0.52556405  0.25663865     0.00220
C1358       C  0.42998307  0.54611842  0.23332517    -0.08250
C1359       C  0.38529926  0.54181357  0.24218441     0.62130
H1360       H  0.42455349  0.59465483  0.19043687     0.12830
H1361       H  0.50631025  0.54014035  0.29658817     0.12840
C1362       C  0.54065953  0.60805891  0.26945354     0.62370
F1363       F  0.37390805  0.57504063  0.26457716    -0.22800
F1364       F  0.37567392  0.50749023  0.26443730    -0.20130
F1365       F  0.36351654  0.54100567  0.20775306    -0.19810
F1366       F  0.53555691  0.65013824  0.27168433    -0.19860
F1367       F  0.57333069  0.59929963  0.24528767    -0.20180
F1368       F  0.54979945  0.59507947  0.30699372    -0.22860
C1369       C  0.44063420  0.77565725  0.09709801    -0.05690
C1370       C  0.47960938  0.76162055  0.10786416     0.00230
C1371       C  0.51225620  0.77524343  0.08391622    -0.08340
C1372       C  0.50300437  0.79063372  0.04623525    -0.05710
C1373       C  0.46352294  0.78513937  0.02968512     0.00220
C1374       C  0.43279158  0.79009023  0.05843051    -0.08250
C1375       C  0.39254484  0.80881012  0.04841565     0.62130
H1376       H  0.41572237  0.77267896  0.11784435     0.12830
H1377       H  0.52818497  0.79959408  0.02771286     0.12840
C1378       C  0.55620299  0.77043828  0.09561568     0.62370
F1379       F  0.36843574  0.81335258  0.08165007    -0.22800
F1380       F  0.37164609  0.78479198  0.02158470    -0.20130
F1381       F  0.39931787  0.84742671  0.03250708    -0.19810
F1382       F  0.56646769  0.72942412  0.09484122    -0.19860
F1383       F  0.56243601  0.78551241  0.13306896    -0.20180
F1384       F  0.58228793  0.79155677  0.07050201    -0.22860
C1385       C  0.51852602  0.93663351  0.19686251    -0.05690
C1386       C  0.49649491  0.96198594  0.22285614     0.00230
C1387       C  0.47032138  0.94056287  0.25175356    -0.08340
C1388       C  0.47255380  0.89823982  0.25604231    -0.05710
C1389       C  0.49635932  0.87497352  0.23258710     0.00220
C1390       C  0.51843523  0.89341812  0.20101522    -0.08250
C1391       C  0.53913217  0.86718046  0.17024448     0.62130
H1392       H  0.53562750  0.95081936  0.17315300     0.12830
H1393       H  0.45583385  0.88249019  0.27945381     0.12840
C1394       C  0.43949754  0.95596219  0.28162419     0.62370
F1395       F  0.55345355  0.89027060  0.13879932    -0.22800
F1396       F  0.51127293  0.83874731  0.15611627    -0.20130
F1397       F  0.57145473  0.84717680  0.18635360    -0.19810
F1398       F  0.40397155  0.93365805  0.27785237    -0.19860
F1399       F  0.43057914  0.99657888  0.27999807    -0.20180
F1400       F  0.45304759  0.94693680  0.31844942    -0.22860
C1401       C  0.34735642  0.81708694  0.81753322    -0.05690
C1402       C  0.32871926  0.85088390  0.83742385     0.00230
C1403       C  0.28632664  0.85557740  0.82721442    -0.08340
C1404       C  0.26864109  0.82808352  0.79899963    -0.05710
C1405       C  0.28576933  0.79240029  0.78077187     0.00220
C1406       C  0.32741209  0.78760850  0.79184525    -0.08250
C1407       C  0.35257820  0.75223893  0.77697268     0.62130
H1408       H  0.37906778  0.81318568  0.82340010     0.12830
H1409       H  0.23925733  0.83721252  0.79064963     0.12840
C1410       C  0.25425671  0.88732626  0.84044943     0.62370
F1411       F  0.35984296  0.75651553  0.73720105    -0.22800
F1412       F  0.33275582  0.71571798  0.78508032    -0.20130
F1413       F  0.38980336  0.75057050  0.79500770    -0.19810
F1414       F  0.23853609  0.90597370  0.80751519    -0.19860
F1415       F  0.26514263  0.91912257  0.86430626    -0.20180
F1416       F  0.22308123  0.86629768  0.85946516    -0.22860
C1417       C  0.97860277  0.80865163  0.56976444    -0.05690
C1418       C  0.00189064  0.77679511  0.58551623     0.00230
C1419       C  0.02824944  0.75484348  0.56153443    -0.08340
C1420       C  0.02474245  0.76008101  0.52170371    -0.05710
C1421       C  0.99887769  0.78923471  0.50307924     0.00220
C1422       C  0.97864045  0.81756241  0.52889780    -0.08250
C1423       C  0.95517717  0.85545218  0.51740574     0.62130
H1424       H  0.95933671  0.82605747  0.58961364     0.12830
H1425       H  0.03972880  0.73710793  0.50397252     0.12840
C1426       C  0.05647741  0.72204626  0.57713612     0.62370
F1427       F  0.91428743  0.84833045  0.52333378    -0.22800
F1428       F  0.96153556  0.86772469  0.47927549    -0.20130
F1429       F  0.96696873  0.88820893  0.54119205    -0.19810
F1430       F  0.03434691  0.69105271  0.59554378    -0.19860
F1431       F  0.08303610  0.73989488  0.60360451    -0.20180
F1432       F  0.07939191  0.70394643  0.54755279    -0.22860
C1433       C  0.15860093  0.80935754  0.70709874    -0.05690
C1434       C  0.13265374  0.79129538  0.73524762     0.00230
C1435       C  0.14799502  0.78198390  0.77266055    -0.08340
C1436       C  0.18955397  0.78345941  0.77740993    -0.05710
C1437       C  0.21673869  0.78908200  0.74503826     0.00220
C1438       C  0.20065010  0.81264977  0.71382244    -0.08250
C1439       C  0.22250738  0.84862224  0.69491270     0.62130
H1440       H  0.14582298  0.82317221  0.68121109     0.12830
H1441       H  0.20173220  0.77466437  0.80543616     0.12840
C1442       C  0.12137753  0.76889808  0.80721519     0.62370
F1443       F  0.19769318  0.88259148  0.69498660    -0.22800
F1444       F  0.23200971  0.83902590  0.65643983    -0.20130
F1445       F  0.25661341  0.86008088  0.71544178    -0.19810
F1446       F  0.09636727  0.73643324  0.79617269    -0.19860
F1447       F  0.09878744  0.80203415  0.81977676    -0.20180
F1448       F  0.14362471  0.75594073  0.83893789    -0.22860
C1449       C  0.21398822  0.44719143  0.59547704    -0.05690
C1450       C  0.23526996  0.47280712  0.62167224     0.00230
C1451       C  0.27699594  0.47992157  0.61216991    -0.08340
C1452       C  0.29123264  0.47205893  0.57292247    -0.05710
C1453       C  0.26532290  0.45603323  0.54394222     0.00220
C1454       C  0.23154934  0.43374349  0.56010538    -0.08250
C1455       C  0.21775742  0.39197134  0.54586433     0.62130
H1456       H  0.18482622  0.43423151  0.60401894     0.12830
H1457       H  0.32157506  0.47990575  0.56472647     0.12840
C1458       C  0.30548492  0.49746708  0.64203548     0.62370
F1459       F  0.24435375  0.37627345  0.51831110    -0.22800
F1460       F  0.17902830  0.39434249  0.53135382    -0.20130
F1461       F  0.21675696  0.36481214  0.57709246    -0.19810
F1462       F  0.30327984  0.47361987  0.67544464    -0.19860
F1463       F  0.29447628  0.53746203  0.65031144    -0.20180
F1464       F  0.34512972  0.49770351  0.62864325    -0.22860
C1465       C  0.19384804  0.66277471  0.74576214    -0.05690
C1466       C  0.20831577  0.64312328  0.77806512     0.00230
C1467       C  0.22708350  0.66758292  0.80771182    -0.08340
C1468       C  0.24362074  0.70648949  0.79763314    -0.05710
C1469       C  0.23927208  0.72232933  0.75947532     0.00220
C1470       C  0.21013346  0.70047490  0.73382551    -0.08250
C1471       C  0.19424700  0.71102550  0.69275458     0.62130
H1472       H  0.17403385  0.64544763  0.72621027     0.12830
H1473       H  0.25910220  0.72471435  0.81979744     0.12840
C1474       C  0.22297329  0.65745352  0.85087093     0.62370
F1475       F  0.15287422  0.71557859  0.69509622    -0.22800
F1476       F  0.20156133  0.67839865  0.66720999    -0.20130
F1477       F  0.21033063  0.74537648  0.67519071    -0.19810
F1478       F  0.25961140  0.66303537  0.86927996    -0.19860
F1479       F  0.20881260  0.61765653  0.85688065    -0.20180
F1480       F  0.19575520  0.68421938  0.86805774    -0.22860
C1481       C  0.28427181  0.58606060  0.50730857    -0.05690
C1482       C  0.25706611  0.59346742  0.47698881     0.00230
C1483       C  0.25412261  0.56367787  0.44580542    -0.08340
C1484       C  0.27514052  0.52684538  0.44972012    -0.05710
C1485       C  0.28671318  0.51438756  0.48749931     0.00220
C1486       C  0.30206735  0.54722986  0.51115668    -0.08250
C1487       C  0.34364861  0.54795148  0.52936058     0.62130
H1488       H  0.29350687  0.61113606  0.52667074     0.12830
H1489       H  0.27221923  0.50377143  0.42683186     0.12840
C1490       C  0.22703120  0.56813674  0.41011344     0.62370
F1491       F  0.36623070  0.58048572  0.51403245    -0.22800
F1492       F  0.36488184  0.51263139  0.52141126    -0.20130
F1493       F  0.34022667  0.55385713  0.56955199    -0.19810
F1494       F  0.24377199  0.59666548  0.38448941    -0.19860
F1495       F  0.18885872  0.58023035  0.42202521    -0.20180
F1496       F  0.22233584  0.53146605  0.38940542    -0.22860
C1497       C  0.28137361  0.70883633  0.65032525    -0.05690
C1498       C  0.28269530  0.74283485  0.62594606     0.00230
C1499       C  0.29723932  0.78082525  0.64311380    -0.08340
C1500       C  0.29587866  0.78592450  0.68449762    -0.05710
C1501       C  0.28286671  0.75417023  0.70896714     0.00220
C1502       C  0.28716995  0.71299240  0.69129805    -0.08250
C1503       C  0.30714890  0.67551414  0.71010646     0.62130
H1504       H  0.27841740  0.67875580  0.63651101     0.12830
H1505       H  0.30450295  0.81473384  0.69804783     0.12840
C1506       C  0.31235064  0.81670821  0.61888062     0.62370
F1507       F  0.30221677  0.64038396  0.68714841    -0.22800
F1508       F  0.29241139  0.66513638  0.74653309    -0.20130
F1509       F  0.34817950  0.68294174  0.71276094    -0.19810
F1510       F  0.28152801  0.82916239  0.59573059    -0.19860
F1511       F  0.34503948  0.80526015  0.59598837    -0.20180
F1512       F  0.32438235  0.85012265  0.64176571    -0.22860
C1513       C  0.11031514  0.78001335  0.47825062    -0.05690
C1514       C  0.11884366  0.73961866  0.46598106     0.00230
C1515       C  0.09348095  0.72291910  0.43550166    -0.08340
C1516       C  0.05795801  0.74390421  0.42485610    -0.05710
C1517       C  0.04326392  0.77916331  0.44465482     0.00220
C1518       C  0.07475934  0.80088761  0.46662803    -0.08250
C1519       C  0.07083549  0.84426591  0.48291667     0.62130
H1520       H  0.13142564  0.79557956  0.49771221     0.12830
H1521       H  0.04079074  0.73154208  0.40100853     0.12840
C1522       C  0.10230013  0.68248126  0.41385926     0.62370
F1523       F  0.10403072  0.86743108  0.47100311    -0.22800
F1524       F  0.07001212  0.84354022  0.52362408    -0.20130
F1525       F  0.03673084  0.86340065  0.47003268    -0.19810
F1526       F  0.10296215  0.65036688  0.44036563    -0.19860
F1527       F  0.13863077  0.68513232  0.39360540    -0.20180
F1528       F  0.07352305  0.67273981  0.38613758    -0.22860
C1529       C  0.51324206  0.78941763  0.51597158    -0.05690
C1530       C  0.49839551  0.76410387  0.48522848     0.00230
C1531       C  0.47665221  0.78623652  0.45438197    -0.08340
C1532       C  0.47723565  0.82920763  0.45414941    -0.05710
C1533       C  0.49723666  0.85321113  0.48128259     0.00220
C1534       C  0.51451010  0.83322851  0.51419136    -0.08250
C1535       C  0.53419568  0.85731633  0.54750386     0.62130
H1536       H  0.52455290  0.77448066  0.54170371     0.12830
H1537       H  0.46129571  0.84505996  0.43111922     0.12840
C1538       C  0.45061851  0.77187212  0.41948740     0.62370
F1539       F  0.54857894  0.83179694  0.57643939    -0.22800
F1540       F  0.50623587  0.88305833  0.56492828    -0.20130
F1541       F  0.56654053  0.88029499  0.53311169    -0.19810
F1542       F  0.41213808  0.78739138  0.42406562    -0.19860
F1543       F  0.44621460  0.73096933  0.41342221    -0.20180
F1544       F  0.46641967  0.78819463  0.38497149    -0.22860
C1545       C  0.51435993  0.65277190  0.53668555    -0.05690
C1546       C  0.52960265  0.69105217  0.52161359     0.00230
C1547       C  0.56941953  0.70063421  0.53892386    -0.08340
C1548       C  0.58825842  0.67316614  0.56717014    -0.05710
C1549       C  0.57548249  0.63231944  0.57744440     0.00220
C1550       C  0.53475639  0.62387742  0.56220021    -0.08250
C1551       C  0.51042199  0.58438347  0.57047381     0.62130
H1552       H  0.48402034  0.64505374  0.52798436     0.12830
H1553       H  0.61634817  0.68369408  0.57983000     0.12840
C1554       C  0.59738160  0.73782900  0.53129908     0.62370
F1555       F  0.49507388  0.58492653  0.60825152    -0.22800
F1556       F  0.53351263  0.55036731  0.56442630    -0.20130
F1557       F  0.47768267  0.57929169  0.54580581    -0.19810
F1558       F  0.60256147  0.75941006  0.56623183    -0.19860
F1559       F  0.58534130  0.76526456  0.50397516    -0.20180
F1560       F  0.63475237  0.72397534  0.51873983    -0.22860
C1561       C  0.54628648  0.72880186  0.42801328    -0.05690
C1562       C  0.51667002  0.70221034  0.44439183     0.00230
C1563       C  0.50047003  0.67423811  0.41517824    -0.08340
C1564       C  0.49976316  0.68662417  0.37451487    -0.05710
C1565       C  0.51792577  0.72413015  0.36160767     0.00220
C1566       C  0.54501784  0.74353429  0.38909636    -0.08250
C1567       C  0.57167664  0.78119592  0.37947705     0.62130
H1568       H  0.56669103  0.74333113  0.44745134     0.12830
H1569       H  0.48515947  0.66676415  0.35301511     0.12840
C1570       C  0.49330514  0.62885386  0.42286160     0.62370
F1571       F  0.59296182  0.79582211  0.41168600    -0.22800
F1572       F  0.54815304  0.81327758  0.36686513    -0.20130
F1573       F  0.59984863  0.77100100  0.35085218    -0.19810
F1574       F  0.45616797  0.61613773  0.40854378    -0.19860
F1575       F  0.49513516  0.61975393  0.46224887    -0.20180
F1576       F  0.52292804  0.60671661  0.40343778    -0.22860
C1577       C  0.42476744  0.69036757  0.47322431    -0.05690
C1578       C  0.45292824  0.70862581  0.49924860     0.00230
C1579       C  0.43351319  0.73356724  0.52903229    -0.08340
C1580       C  0.39712298  0.75354310  0.52007748    -0.05710
C1581       C  0.37393260  0.74431272  0.48643702     0.00220
C1582       C  0.38600806  0.70790390  0.46551082    -0.08250
C1583       C  0.35912718  0.68679669  0.43557058     0.62130
H1584       H  0.43416352  0.66469471  0.45606475     0.12830
H1585       H  0.38644437  0.77641675  0.54082563     0.12840
C1586       C  0.44852769  0.74085127  0.57065767     0.62370
F1587       F  0.37853641  0.65505915  0.41600546    -0.22800
F1588       F  0.34692129  0.71440796  0.40753864    -0.20130
F1589       F  0.32617828  0.66982757  0.45498400    -0.19810
F1590       F  0.45457898  0.78257891  0.57751658    -0.19860
F1591       F  0.48349874  0.72064275  0.57887027    -0.20180
F1592       F  0.41919879  0.72678832  0.59683804    -0.22860
C1593       C  0.06742584  0.58765696  0.16784492    -0.05690
C1594       C  0.09122383  0.56695644  0.13883822     0.00230
C1595       C  0.08479700  0.52245211  0.13896326    -0.08340
C1596       C  0.05249919  0.50466350  0.16228915    -0.05710
C1597       C  0.03027093  0.52449025  0.19337938     0.00220
C1598       C  0.03834541  0.56877652  0.19466666    -0.08250
C1599       C  0.01490978  0.59901193  0.22054404     0.62130
H1600       H  0.07110394  0.62078936  0.16814918     0.12830
H1601       H  0.04488790  0.47306938  0.15585702     0.12840
C1602       C  0.11018988  0.49124709  0.11581449     0.62370
F1603       F  0.02927910  0.63917263  0.21714802    -0.22800
F1604       F  0.01785550  0.58957457  0.25972216    -0.20130
F1605       F  0.97510826  0.59942723  0.20914706    -0.19810
F1606       F  0.15037789  0.49550429  0.12492920    -0.19860
F1607       F  0.10473893  0.49515691  0.07610155    -0.20180
F1608       F  0.09996838  0.45077374  0.12473889    -0.22860
C1609       C  0.27764207  0.68834156  0.22083000    -0.05690
C1610       C  0.25911343  0.72527275  0.21177419     0.00230
C1611       C  0.28723615  0.75970454  0.20392080    -0.08340
C1612       C  0.32586983  0.75941333  0.22050939    -0.05710
C1613       C  0.34129526  0.72436828  0.23721110     0.00220
C1614       C  0.31711552  0.68753806  0.23571283    -0.08250
C1615       C  0.33429608  0.64644815  0.24648783     0.62130
H1616       H  0.26007788  0.66029433  0.21824972     0.12830
H1617       H  0.34627571  0.78556547  0.21597419     0.12840
C1618       C  0.28154678  0.79734934  0.17788217     0.62370
F1619       F  0.30439906  0.61757951  0.25492783    -0.22800
F1620       F  0.35842498  0.65111897  0.27928594    -0.20130
F1621       F  0.35656751  0.63130301  0.21509492    -0.19810
F1622       F  0.29090494  0.83311875  0.19845772    -0.19860
F1623       F  0.24373853  0.80139213  0.16317649    -0.20180
F1624       F  0.30804866  0.79475287  0.14620763    -0.22860
C1625       C  0.16766555  0.73070211  0.28450073    -0.05690
C1626       C  0.20151680  0.71260700  0.26556559     0.00230
C1627       C  0.23088057  0.69840965  0.29254954    -0.08340
C1628       C  0.23860684  0.72254057  0.32645660    -0.05710
C1629       C  0.20998400  0.75042794  0.34086985     0.00220
C1630       C  0.17235553  0.75235591  0.32074487    -0.08250
C1631       C  0.13752294  0.77910800  0.33413571     0.62130
H1632       H  0.14121083  0.73663408  0.26710974     0.12830
H1633       H  0.26299177  0.71397893  0.34565045     0.12840
C1634       C  0.23183225  0.65291389  0.30182210     0.62370
F1635       F  0.12823864  0.80609982  0.30438538    -0.22800
F1636       F  0.14589760  0.80236809  0.36736968    -0.20130
F1637       F  0.10411663  0.75426441  0.34180575    -0.19810
F1638       F  0.26810013  0.64314736  0.31899932    -0.19860
F1639       F  0.22686339  0.62880413  0.26892521    -0.20180
F1640       F  0.20069028  0.64334343  0.32788740    -0.22860
C1641       C  0.23395209  0.79262610  0.25941348    -0.05690
C1642       C  0.20704236  0.77698871  0.22953748     0.00230
C1643       C  0.18004088  0.80720760  0.21513401    -0.08340
C1644       C  0.18963791  0.84993482  0.22209492    -0.05710
C1645       C  0.22139092  0.86351409  0.24733596     0.00220
C1646       C  0.24049578  0.83379448  0.26952080    -0.08250
C1647       C  0.27131118  0.84487188  0.30088687     0.62130
H1648       H  0.25449177  0.77186066  0.27260038     0.12830
H1649       H  0.17253072  0.87307701  0.20699526     0.12840
C1650       C  0.14058392  0.79776673  0.19476930     0.62370
F1651       F  0.28428186  0.81070775  0.32101864    -0.22800
F1652       F  0.25376744  0.87109153  0.32804875    -0.20130
F1653       F  0.30498850  0.86366344  0.28400919    -0.19810
F1654       F  0.13288006  0.75619205  0.19058372    -0.19860
F1655       F  0.14058289  0.81596206  0.15812070    -0.20180
F1656       F  0.10938624  0.81421550  0.21695291    -0.22860
C1657       C  0.16741045  0.65952146  0.20472729    -0.05690
C1658       C  0.18717715  0.69623551  0.18997824     0.00230
C1659       C  0.18847866  0.69516954  0.14697437    -0.08340
C1660       C  0.16888262  0.66242511  0.12424927    -0.05710
C1661       C  0.14774789  0.62729362  0.13930036     0.00220
C1662       C  0.15372853  0.62445779  0.18142639    -0.08250
C1663       C  0.15431161  0.58378819  0.20367643     0.62130
H1664       H  0.16578504  0.65492274  0.23603761     0.12830
H1665       H  0.17263952  0.66333165  0.09325368     0.12840
C1666       C  0.21000049  0.72797059  0.12279375     0.62370
F1667       F  0.18962303  0.58130711  0.22452847    -0.22800
F1668       F  0.15425169  0.54977514  0.17953511    -0.20130
F1669       F  0.12233010  0.58144479  0.23012078    -0.19810
F1670       F  0.25035240  0.72943044  0.13186705    -0.19860
F1671       F  0.19177420  0.76505453  0.12953893    -0.20180
F1672       F  0.20811871  0.72086131  0.08260600    -0.22860
C1673       C  0.30614875  0.47685301  0.01191991    -0.05690
C1674       C  0.28385918  0.51191371  0.00040466     0.00230
C1675       C  0.30838006  0.54590393  0.98979575    -0.08340
C1676       C  0.34575410  0.53789596  0.97137156    -0.05710
C1677       C  0.36337186  0.49809893  0.97110240     0.00220
C1678       C  0.34442909  0.46781163  0.99566668    -0.08250
C1679       C  0.36128965  0.42536726  0.00413238     0.62130
H1680       H  0.29101090  0.45319328  0.02881714     0.12830
H1681       H  0.36136633  0.56367460  0.95772290     0.12840
C1682       C  0.30235607  0.58801212  0.00866155     0.62370
F1683       F  0.33124581  0.39790241  0.01600683    -0.22800
F1684       F  0.38830619  0.42856316  0.03443543    -0.20130
F1685       F  0.37944987  0.40797007  0.97144347    -0.19810
F1686       F  0.32308400  0.58952998  0.04349063    -0.19860
F1687       F  0.26226656  0.59572107  0.01696528    -0.20180
F1688       F  0.31742350  0.61914723  0.98491022    -0.22860
C1689       C  0.24937544  0.55751316  0.93022961    -0.05690
C1690       C  0.22712850  0.52415278  0.94657285     0.00230
C1691       C  0.20420275  0.50110493  0.91769337    -0.08340
C1692       C  0.21786031  0.50078114  0.87815762    -0.05710
C1693       C  0.25334656  0.52192361  0.86676945     0.00220
C1694       C  0.26699177  0.55452042  0.89207917    -0.08250
C1695       C  0.30379619  0.58157941  0.88236959     0.62130
H1696       H  0.25746427  0.58308214  0.94862607     0.12830
H1697       H  0.20309009  0.48034575  0.85720794     0.12840
C1698       C  0.16652435  0.47507625  0.92600779     0.62370
F1699       F  0.31021762  0.61188448  0.91042039    -0.22800
F1700       F  0.29947784  0.60115962  0.84683643    -0.20130
F1701       F  0.33780793  0.55748276  0.88065007    -0.19810
F1702       F  0.15369832  0.47667983  0.96460200    -0.19860
F1703       F  0.17348440  0.43435756  0.91601291    -0.20180
F1704       F  0.13551079  0.48910121  0.90311734    -0.22860
C1705       C  0.17208750  0.54695509  0.01183850    -0.05690
C1706       C  0.20872219  0.52933238  0.02365622     0.00230
C1707       C  0.21527790  0.53389361  0.06597134    -0.08340
C1708       C  0.18825945  0.55846853  0.09024883    -0.05710
C1709       C  0.14888949  0.57030158  0.07915182     0.00220
C1710       C  0.14075169  0.56018675  0.03805571    -0.08250
C1711       C  0.09965314  0.55792911  0.01853476     0.62130
H1712       H  0.16505583  0.54692206  0.98094645     0.12830
H1713       H  0.19678465  0.56581854  0.12005074     0.12840
C1714       C  0.24874568  0.51236705  0.08798921     0.62370
F1715       F  0.09551814  0.52122863  0.99780430    -0.22800
F1716       F  0.09658695  0.58966767  0.99217849    -0.20130
F1717       F  0.06805814  0.55840549  0.04452885    -0.19810
F1718       F  0.28614635  0.52846349  0.07814896    -0.19860
F1719       F  0.24730411  0.47065538  0.08034573    -0.20180
F1720       F  0.24458612  0.51674330  0.12840609    -0.22860
C1721       C  0.20913735  0.43694099  0.01254988    -0.05690
C1722       C  0.23198724  0.45885087  0.98440633     0.00230
C1723       C  0.25409803  0.43370082  0.95513097    -0.08340
C1724       C  0.25260537  0.39089685  0.95772596    -0.05710
C1725       C  0.24091961  0.37265774  0.99222163     0.00220
C1726       C  0.21511419  0.39461594  0.01833395    -0.08250
C1727       C  0.19737889  0.37492645  0.05451769     0.62130
H1728       H  0.19036555  0.45360535  0.03319855     0.12830
H1729       H  0.26830747  0.37212333  0.93598129     0.12840
C1730       C  0.28415867  0.44614249  0.92272435     0.62370
F1731       F  0.16581594  0.39736799  0.07040738    -0.22800
F1732       F  0.22753564  0.37318060  0.08184851    -0.20130
F1733       F  0.18297109  0.33576420  0.04573588    -0.19810
F1734       F  0.31936015  0.42409452  0.92575778    -0.19860
F1735       F  0.29573535  0.48640434  0.92359820    -0.20180
F1736       F  0.26811844  0.43598309  0.88653882    -0.22860
C1737       C  0.04608209  0.78500948  0.97726097    -0.05690
C1738       C  0.04107681  0.76199665  0.01245119     0.00230
C1739       C  0.04347221  0.78608001  0.04745149    -0.08340
C1740       C  0.03185048  0.82761071  0.04532733    -0.05710
C1741       C  0.02109703  0.84624785  0.00957139     0.00220
C1742       C  0.02986583  0.82464086  0.97434059    -0.08250
C1743       C  0.02075483  0.84177218  0.93401188     0.62130
H1744       H  0.05390636  0.76932527  0.95020026     0.12830
H1745       H  0.03253720  0.84611779  0.07198581     0.12840
C1746       C  0.07146393  0.77595814  0.08114165     0.62370
F1747       F  0.02982974  0.81428969  0.90396360    -0.22800
F1748       F  0.04305033  0.87705793  0.92746746    -0.20130
F1749       F  0.98019979  0.85063488  0.93185227    -0.19810
F1750       F  0.11001348  0.78987459  0.07164317    -0.19860
F1751       F  0.07317034  0.73462626  0.08903993    -0.20180
F1752       F  0.05924606  0.79561249  0.11549156    -0.22860
C1753       C  0.97730586  0.74089881  0.95151718    -0.05690
C1754       C  0.00624707  0.71130450  0.96447705     0.00230
C1755       C  0.01662809  0.68097616  0.93530107    -0.08340
C1756       C  0.00742345  0.68892148  0.89517040    -0.05710
C1757       C  0.98106195  0.72045895  0.88394186     0.00220
C1758       C  0.96258188  0.74375901  0.91330200    -0.08250
C1759       C  0.92892831  0.77328010  0.90367233     0.62130
H1760       H  0.96763367  0.76458364  0.97154719     0.12830
H1761       H  0.02061972  0.66986984  0.87218332     0.12840
C1762       C  0.03457551  0.63943273  0.94349276     0.62370
F1763       F  0.91381668  0.79272496  0.93698774    -0.22800
F1764       F  0.89756686  0.75136545  0.88639475    -0.20130
F1765       F  0.94265191  0.80323283  0.87781568    -0.19810
F1766       F  0.02709733  0.62677337  0.98141838    -0.19860
F1767       F  0.07554124  0.64055398  0.93553217    -0.20180
F1768       F  0.01704880  0.60986339  0.91929188    -0.22860
C1769       C  0.02995595  0.66266597  0.06498373    -0.05690
C1770       C  0.04725896  0.68435194  0.03245358     0.00230
C1771       C  0.08933440  0.67617256  0.02651773    -0.08340
C1772       C  0.10978649  0.64905014  0.05263222    -0.05710
C1773       C  0.09115792  0.62509670  0.08342470     0.00220
C1774       C  0.04740713  0.62915175  0.08426496    -0.08250
C1775       C  0.01355415  0.59908123  0.09805806     0.62130
H1776       H  0.99989913  0.66906259  0.07533412     0.12830
H1777       H  0.14099817  0.64351452  0.04554123     0.12840
C1778       C  0.11588906  0.69759775  0.99599432     0.62370
F1779       F  0.98337340  0.59702252  0.07005798    -0.22800
F1780       F  0.99612252  0.61382151  0.13236089    -0.20130
F1781       F  0.02424785  0.55892516  0.10247567    -0.19810
F1782       F  0.13730760  0.72933051  0.01389502    -0.19860
F1783       F  0.09433993  0.71321589  0.96548434    -0.20180
F1784       F  0.14310066  0.67013445  0.97971846    -0.22860
C1785       C  0.07581631  0.17415356  0.54006430    -0.05690
C1786       C  0.03527961  0.18575120  0.54532028     0.00230
C1787       C  0.01910828  0.17783191  0.58438967    -0.08340
C1788       C  0.03861985  0.14847623  0.60867410    -0.05710
C1789       C  0.07999978  0.13847109  0.60418417     0.00220
C1790       C  0.09944338  0.15892391  0.57098483    -0.08250
C1791       C  0.14429380  0.16898313  0.56634198     0.62130
H1792       H  0.09147898  0.18239386  0.51310707     0.12830
H1793       H  0.02194539  0.13687660  0.63343250     0.12840
C1794       C  0.98628014  0.20360545  0.60450290     0.62370
F1795       F  0.15033373  0.20979052  0.55688850    -0.22800
F1796       F  0.16081678  0.14566222  0.53655670    -0.20130
F1797       F  0.16536747  0.16386117  0.59981616    -0.19810
F1798       F  0.97746170  0.18999085  0.64209853    -0.19860
F1799       F  0.95055149  0.20275335  0.58463619    -0.20180
F1800       F  0.99960153  0.24393046  0.60838070    -0.22860
C1801       C  0.26917250  0.05805107  0.50153846    -0.05690
C1802       C  0.24569252  0.02520486  0.51865937     0.00230
C1803       C  0.26808767  0.99455457  0.53730599    -0.08340
C1804       C  0.30547988  0.98493248  0.52013964    -0.05710
C1805       C  0.32579665  0.01269260  0.49463373     0.00220
C1806       C  0.30662432  0.04928238  0.48342002    -0.08250
C1807       C  0.32196494  0.07530125  0.44865060     0.62130
H1808       H  0.25337204  0.08523984  0.49241809     0.12830
H1809       H  0.32245609  0.96008086  0.53280750     0.12840
C1810       C  0.26972858  0.99563637  0.58189667     0.62370
F1811       F  0.29782907  0.10905772  0.44264753    -0.22800
F1812       F  0.32180459  0.05176748  0.41484323    -0.20130
F1813       F  0.36095393  0.08946344  0.45310904    -0.19810
F1814       F  0.23218685  0.00067549  0.59900694    -0.19860
F1815       F  0.29440217  0.02829223  0.59333524    -0.20180
F1816       F  0.28620333  0.96006903  0.59632381    -0.22860
C1817       C  0.21942119  0.05547129  0.39265812    -0.05690
C1818       C  0.24599149  0.02393148  0.38060163     0.00230
C1819       C  0.25838635  0.99474739  0.40749009    -0.08340
C1820       C  0.24045502  0.99595552  0.44395456    -0.05710
C1821       C  0.21109231  0.02546706  0.45749624     0.00220
C1822       C  0.20282586  0.05804138  0.43094434    -0.08250
C1823       C  0.17959365  0.09690801  0.43929216     0.62130
H1824       H  0.21161765  0.07909115  0.37185889     0.12830
H1825       H  0.25016082  0.97245164  0.46371851     0.12840
C1826       C  0.28996546  0.96177165  0.39883395     0.62370
F1827       F  0.20407591  0.13083757  0.43114730    -0.22800
F1828       F  0.16690359  0.10047748  0.47736277    -0.20130
F1829       F  0.14623812  0.09795558  0.41521194    -0.19810
F1830       F  0.32322627  0.97858950  0.37941994    -0.19860
F1831       F  0.27300139  0.93078729  0.37613530    -0.20180
F1832       F  0.30399455  0.94378250  0.43275559    -0.22860
C1833       C  0.19727891  0.90878412  0.46498131    -0.05690
C1834       C  0.21830752  0.89402928  0.49691881     0.00230
C1835       C  0.20639434  0.90995907  0.53473217    -0.08340
C1836       C  0.18964494  0.94954334  0.53695381    -0.05710
C1837       C  0.18455133  0.97212359  0.50284980     0.00220
C1838       C  0.17677437  0.94640054  0.46800519    -0.08250
C1839       C  0.15361574  0.95770457  0.43109003     0.62130
H1840       H  0.19870597  0.89238016  0.43709725     0.12830
H1841       H  0.18413165  0.96416628  0.56501588     0.12840
C1842       C  0.20996312  0.88641356  0.57262958     0.62370
F1843       F  0.12108113  0.93095896  0.42692021    -0.22800
F1844       F  0.17797002  0.95375282  0.39793644    -0.20130
F1845       F  0.13907965  0.99687820  0.43167733    -0.19810
F1846       F  0.24717574  0.89450663  0.58861442    -0.19860
F1847       F  0.20473849  0.84456572  0.56623042    -0.20180
F1848       F  0.18073911  0.89844589  0.59967077    -0.22860
C1849       C  0.11036840  0.06579622  0.56897493    -0.05690
C1850       C  0.13088501  0.08232984  0.60238260     0.00230
C1851       C  0.17444553  0.08095204  0.59907389    -0.08340
C1852       C  0.19185147  0.06942845  0.56242117    -0.05710
C1853       C  0.17239157  0.04622943  0.53200279     0.00220
C1854       C  0.12894773  0.04605572  0.53577863    -0.08250
C1855       C  0.10037290  0.02883311  0.50477146     0.62130
H1856       H  0.07788296  0.06841135  0.56957554     0.12830
H1857       H  0.22256931  0.07924704  0.55828285     0.12840
C1858       C  0.20547332  0.08926250  0.63173445     0.62370
F1859       F  0.06008998  0.03435838  0.51457074    -0.22800
F1860       F  0.10513888  0.98702957  0.50008279    -0.20130
F1861       F  0.10680814  0.04926702  0.46992453    -0.19810
F1862       F  0.19952430  0.06175110  0.66175918    -0.19860
F1863       F  0.20506069  0.12893606  0.64561018    -0.20180
F1864       F  0.24487953  0.08365319  0.61919281    -0.22860
C1865       C  0.66607958  0.44781794  0.01879741    -0.05690
C1866       C  0.67571646  0.46468107  0.98127266     0.00230
C1867       C  0.64127519  0.47040592  0.95679534    -0.08340
C1868       C  0.60240913  0.47414419  0.97488576    -0.05710
C1869       C  0.59647960  0.47013185  0.01598739     0.00220
C1870       C  0.62735488  0.44985196  0.03645722    -0.08250
C1871       C  0.62059008  0.43226480  0.07742609     0.62130
H1872       H  0.68934745  0.43575070  0.03631122     0.12830
H1873       H  0.57700924  0.48267890  0.95700567     0.12840
C1874       C  0.64337702  0.47426041  0.91239204     0.62370
F1875       F  0.65487828  0.41417989  0.09174398    -0.22800
F1876       F  0.59086038  0.40191511  0.07636974    -0.20130
F1877       F  0.60928588  0.46321598  0.10331958    -0.19810
F1878       F  0.61962574  0.44343455  0.89579817    -0.19860
F1879       F  0.68198093  0.47040174  0.89746499    -0.20180
F1880       F  0.62861471  0.51194910  0.90110523    -0.22860
C1881       C  0.72967578  0.52588287  0.03804587    -0.05690
C1882       C  0.74141735  0.49153624  0.01446891     0.00230
C1883       C  0.76186494  0.46068458  0.03548658    -0.08340
C1884       C  0.75110574  0.45519343  0.07534795    -0.05710
C1885       C  0.72711307  0.48440444  0.09526202     0.00220
C1886       C  0.72046004  0.52277551  0.07755757    -0.08250
C1887       C  0.70239353  0.56021049  0.09886511     0.62130
H1888       H  0.72248428  0.55482923  0.02562113     0.12830
H1889       H  0.76362680  0.42978155  0.09147756     0.12840
C1890       C  0.80246003  0.44410724  0.02234387     0.62370
F1891       F  0.69419157  0.59234870  0.07386052    -0.22800
F1892       F  0.72958436  0.57564069  0.12596958    -0.20130
F1893       F  0.66640232  0.54917676  0.11738780    -0.19810
F1894       F  0.81660405  0.46300495  0.98853660    -0.19860
F1895       F  0.80023536  0.40198403  0.01653184    -0.20180
F1896       F  0.83065737  0.45212830  0.05129572    -0.22860
C1897       C  0.01270836  0.52214489  0.70895409    -0.05690
C1898       C  0.97997691  0.49871265  0.72655839     0.00230
C1899       C  0.95747402  0.47479761  0.69846011    -0.08340
C1900       C  0.95813583  0.48757774  0.65848068    -0.05710
C1901       C  0.98641257  0.51678203  0.64284958     0.00220
C1902       C  0.01670904  0.53104359  0.66841948    -0.08250
C1903       C  0.05292315  0.55592771  0.65353857     0.62130
H1904       H  0.03433026  0.53675489  0.72793021     0.12830
H1905       H  0.93780749  0.47167392  0.63850155     0.12840
C1906       C  0.93852488  0.43229186  0.70489532     0.62370
F1907       F  0.07965165  0.56574578  0.68328339    -0.22800
F1908       F  0.04019072  0.59230851  0.63717088    -0.20130
F1909       F  0.07376174  0.53321437  0.62554530    -0.19810
F1910       F  0.89740746  0.43332708  0.69831674    -0.19860
F1911       F  0.94534670  0.41647775  0.74154766    -0.20180
F1912       F  0.95519081  0.40496489  0.67799442    -0.22860
C1913       C  0.99476432  0.58642539  0.77700388    -0.05690
C1914       C  0.96340521  0.55730705  0.76884344     0.00230
C1915       C  0.93742715  0.57206906  0.73801009    -0.08340
C1916       C  0.95157497  0.60297203  0.71138526    -0.05710
C1917       C  0.98867117  0.62431151  0.71586224     0.00220
C1918       C  0.01166749  0.61401991  0.74899608    -0.08250
C1919       C  0.05514312  0.62876937  0.75549219     0.62130
H1920       H  0.00832101  0.58769207  0.80455725     0.12830
H1921       H  0.93232460  0.61166382  0.68740188     0.12840
C1922       C  0.89380777  0.55834038  0.73312139     0.62370
F1923       F  0.07849246  0.59598363  0.76559676    -0.22800
F1924       F  0.05644070  0.65722747  0.78586170    -0.20130
F1925       F  0.07362670  0.64489706  0.72227230    -0.19810
F1926       F  0.87696381  0.54746197  0.76898816    -0.19860
F1927       F  0.89082524  0.52655421  0.70614648    -0.20180
F1928       F  0.87101350  0.58996391  0.71846099    -0.22860
C1929       C  0.02453111  0.45500113  0.77848339    -0.05690
C1930       C  0.01385256  0.49525299  0.79020100     0.00230
C1931       C  0.04697173  0.52070776  0.80332432    -0.08340
C1932       C  0.08471515  0.51347568  0.78615536    -0.05710
C1933       C  0.09045116  0.48087919  0.75967752     0.00220
C1934       C  0.06069339  0.44886471  0.75783866    -0.08250
C1935       C  0.06490074  0.41024980  0.73237963     0.62130
H1936       H  0.00138156  0.43145487  0.77771515     0.12830
H1937       H  0.11044512  0.53239596  0.79491221     0.12840
C1938       C  0.04910447  0.54292364  0.84313355     0.62370
F1939       F  0.02876288  0.38847792  0.72935976    -0.22800
F1940       F  0.09277693  0.38415851  0.74848370    -0.20130
F1941       F  0.07693097  0.42104301  0.69464757    -0.19810
F1942       F  0.06855775  0.51854551  0.86987130    -0.19860
F1943       F  0.01169244  0.55225406  0.85815335    -0.20180
F1944       F  0.07107745  0.57941334  0.84001125    -0.22860
C1945       C  0.91754969  0.36054273  0.88701387    -0.05690
C1946       C  0.87421005  0.36228760  0.89113899     0.00230
C1947       C  0.86050355  0.32844956  0.91625163    -0.08340
C1948       C  0.88682639  0.31093504  0.94425365    -0.05710
C1949       C  0.92946718  0.31214875  0.94349546     0.00220
C1950       C  0.94476546  0.33576368  0.91008762    -0.08250
C1951       C  0.98704135  0.33252205  0.89212184     0.62130
H1952       H  0.93099165  0.37529303  0.86178336     0.12830
H1953       H  0.87317507  0.28921614  0.96413019     0.12840
C1954       C  0.82360952  0.29967935  0.91167277     0.62370
F1955       F  0.98523092  0.33140776  0.85140242    -0.22800
F1956       F  0.00607679  0.29716308  0.90235754    -0.20130
F1957       F  0.01024913  0.36641050  0.90288467    -0.19810
F1958       F  0.79756960  0.30945637  0.88291067    -0.19860
F1959       F  0.80210190  0.29793977  0.94680352    -0.20180
F1960       F  0.83675423  0.26027457  0.90287684    -0.22860
C1961       C  0.78907165  0.39907681  0.92055705    -0.05690
C1962       C  0.81628824  0.42168681  0.89571310     0.00230
C1963       C  0.80867621  0.46597826  0.89762036    -0.08340
C1964       C  0.77164029  0.48020452  0.91444609    -0.05710
C1965       C  0.74804258  0.45893707  0.94300330     0.00220
C1966       C  0.75566841  0.41542735  0.94306521    -0.08250
C1967       C  0.72606553  0.38430553  0.96148344     0.62130
H1968       H  0.79250348  0.36707392  0.92109923     0.12830
H1969       H  0.76141254  0.50946200  0.90436603     0.12840
C1970       C  0.83806580  0.50135414  0.88713002     0.62370
F1971       F  0.73589430  0.34399796  0.95264311    -0.22800
F1972       F  0.68778490  0.39001463  0.94704655    -0.20130
F1973       F  0.72549050  0.38764337  0.00176048    -0.19810
F1974       F  0.84528419  0.50386058  0.84738067    -0.19860
F1975       F  0.87327818  0.49756801  0.90788077    -0.20180
F1976       F  0.82337193  0.53959411  0.89809603    -0.22860
C1977       C  0.90788237  0.44452332  0.85896430    -0.05690
C1978       C  0.87475438  0.42749380  0.83973420     0.00230
C1979       C  0.87071912  0.44316305  0.79988369    -0.08340
C1980       C  0.90187974  0.46926486  0.78290810    -0.05710
C1981       C  0.93864513  0.48152048  0.80035549     0.00220
C1982       C  0.94148097  0.46563806  0.84118952    -0.08250
C1983       C  0.97521371  0.46990835  0.87204996     0.62130
H1984       H  0.90770794  0.43861788  0.89020088     0.12830
H1985       H  0.89814173  0.47932049  0.75369569     0.12840
C1986       C  0.83187417  0.44018144  0.77614405     0.62370
F1987       F  0.97280641  0.43918859  0.90017746    -0.22800
F1988       F  0.97048616  0.50624307  0.89264952    -0.20130
F1989       F  0.01348347  0.46518503  0.85778697    -0.19810
F1990       F  0.79966306  0.45054677  0.79952711    -0.19860
F1991       F  0.82617120  0.40152607  0.76018579    -0.20180
F1992       F  0.83167506  0.46744585  0.74499435    -0.22860
C1993       C  0.84650533  0.34193827  0.81017001    -0.05690
C1994       C  0.82255070  0.36808391  0.83452599     0.00230
C1995       C  0.77969235  0.36270511  0.82941883    -0.08340
C1996       C  0.76589381  0.32590542  0.81171707    -0.05710
C1997       C  0.78782891  0.30162662  0.78407312     0.00220
C1998       C  0.83050262  0.31229903  0.78280217    -0.08250
C1999       C  0.86272216  0.29219569  0.75733398     0.62130
H2000       H  0.87901999  0.34606242  0.81129592     0.12830
H2001       H  0.73595641  0.31754270  0.82099965     0.12840
C2002       C  0.74431454  0.39049217  0.84069288     0.62370
F2003       F  0.88305943  0.32197647  0.73558446    -0.22800
F2004       F  0.84761617  0.26266663  0.73217320    -0.20130
F2005       F  0.89085454  0.27407830  0.78119574    -0.19810
F2006       F  0.75405543  0.43009893  0.85061900    -0.19860
F2007       F  0.72211804  0.37281263  0.87102105    -0.20180
F2008       F  0.71913737  0.39348104  0.80860655    -0.22860
C2009       C  0.67892384  0.59301193  0.94332268    -0.05690
C2010       C  0.70943814  0.61756432  0.95961527     0.00230
C2011       C  0.74722088  0.59919323  0.96505868    -0.08340
C2012       C  0.74949231  0.55636311  0.95844554    -0.05710
C2013       C  0.71357932  0.53108118  0.95943907     0.00220
C2014       C  0.67647172  0.55464647  0.96032451    -0.08250
C2015       C  0.64500976  0.55780642  0.99412902     0.62130
H2016       H  0.65067142  0.60732716  0.93566323     0.12830
H2017       H  0.77822729  0.54177963  0.96264568     0.12840
C2018       C  0.78264108  0.62183567  0.98260706     0.62370
F2019       F  0.64678595  0.59612957  0.01252941    -0.22800
F2020       F  0.65029686  0.53055020  0.02382160    -0.20130
F2021       F  0.60654271  0.55449399  0.97907768    -0.19810
F2022       F  0.77445759  0.62975889  0.02187900    -0.19860
F2023       F  0.78986103  0.65839792  0.96324315    -0.20180
F2024       F  0.81717880  0.59844919  0.97995679    -0.22860
C2025       C  0.56948640  0.73709585  0.99442502    -0.05690
C2026       C  0.58784300  0.75640456  0.96314864     0.00230
C2027       C  0.56320860  0.77439165  0.93409925    -0.08340
C2028       C  0.52074411  0.77534327  0.94065351    -0.05710
C2029       C  0.50180787  0.75417248  0.97233263     0.00220
C2030       C  0.52865977  0.72822874  0.99530696    -0.08250
C2031       C  0.51892040  0.69057805  0.02071612     0.62130
H2032       H  0.58840169  0.72460279  0.01684032     0.12830
H2033       H  0.50241420  0.79256082  0.92081724     0.12840
C2034       C  0.58105055  0.79234796  0.89669357     0.62370
F2035       F  0.50866163  0.65865760  0.99621513    -0.22800
F2036       F  0.49052215  0.69877999  0.04893012    -0.20130
F2037       F  0.55136939  0.67544522  0.04122529    -0.19810
F2038       F  0.59379405  0.76059602  0.87251072    -0.19860
F2039       F  0.61315060  0.81858720  0.90512929    -0.20180
F2040       F  0.55305179  0.81448623  0.87633976    -0.22860
C2041       C  0.92132808  0.76276376  0.03221938    -0.05690
C2042       C  0.89816340  0.73396263  0.01051095     0.00230
C2043       C  0.91175866  0.69291109  0.00759838    -0.08340
C2044       C  0.95118863  0.68444932  0.01888895    -0.05710
C2045       C  0.97739321  0.71701315  0.03036189     0.00220
C2046       C  0.95844152  0.75148872  0.04769310    -0.08250
C2047       C  0.96339931  0.76106563  0.09110540     0.62130
H2048       H  0.90741483  0.79085610  0.04285458     0.12830
H2049       H  0.96380908  0.65480839  0.01159164     0.12840
C2050       C  0.88436055  0.65830809  0.99437840     0.62370
F2051       F  0.92906543  0.74812546  0.11147908    -0.22800
F2052       F  0.96826589  0.80299342  0.09712015    -0.20130
F2053       F  0.99560866  0.74069662  0.10679206    -0.19810
F2054       F  0.87038899  0.66636289  0.95710161    -0.19860
F2055       F  0.85262778  0.65558039  0.02095163    -0.20180
F2056       F  0.90360525  0.62071868  0.99332226    -0.22860
C2057       C  0.73455403  0.79189072  0.15064200    -0.05690
C2058       C  0.73447701  0.75664840  0.12574321     0.00230
C2059       C  0.76596061  0.72819043  0.13220162    -0.08340
C2060       C  0.79409835  0.73603359  0.16274156    -0.05710
C2061       C  0.78735714  0.76491506  0.19389213     0.00220
C2062       C  0.76451094  0.79853985  0.17998309    -0.08250
C2063       C  0.78399690  0.84082491  0.17882031     0.62130
H2064       H  0.71715491  0.81813254  0.14151683     0.12830
H2065       H  0.82151859  0.71931549  0.16056908     0.12840
C2066       C  0.77190349  0.68865776  0.10863021     0.62370
F2067       F  0.79663978  0.84842527  0.14064865    -0.22800
F2068       F  0.81787183  0.84371437  0.20168330    -0.20130
F2069       F  0.75668033  0.87035149  0.19072086    -0.19810
F2070       F  0.80770951  0.69105741  0.08754676    -0.19860
F2071       F  0.74088881  0.67938288  0.08339934    -0.20180
F2072       F  0.77398563  0.65595284  0.13407871    -0.22860
C2073       C  0.50411643  0.27899963  0.96515106    -0.05690
C2074       C  0.53148380  0.26518113  0.99518157     0.00230
C2075       C  0.56002267  0.29588457  0.00859059    -0.08340
C2076       C  0.55752023  0.33620948  0.99295525    -0.05710
C2077       C  0.52814808  0.34851921  0.96537416     0.00220
C2078       C  0.50245701  0.31850797  0.94964964    -0.08250
C2079       C  0.47162920  0.32789693  0.91818346     0.62130
H2080       H  0.48043815  0.25830826  0.95553835     0.12830
H2081       H  0.57833052  0.35945557  0.00425469     0.12840
C2082       C  0.59249348  0.29204776  0.03971269     0.62370
F2083       F  0.45299724  0.29256661  0.90375828    -0.22800
F2084       F  0.49063058  0.34749624  0.88687601    -0.20130
F2085       F  0.44167461  0.35265779  0.93353989    -0.19810
F2086       F  0.59951512  0.25282186  0.05183597    -0.19860
F2087       F  0.58185560  0.31546510  0.07230009    -0.20180
F2088       F  0.62879610  0.30749369  0.02499326    -0.22860
C2089       C  0.46058849  0.26163746  0.03473364    -0.05690
C2090       C  0.47544565  0.22164027  0.02453918     0.00230
C2091       C  0.44428853  0.19043169  0.02406033    -0.08340
C2092       C  0.40380048  0.20227824  0.01709124    -0.05710
C2093       C  0.39276641  0.24396470  0.01450598     0.00220
C2094       C  0.42154874  0.27410373  0.02552672    -0.08250
C2095       C  0.41170791  0.31981154  0.02611467     0.62130
H2096       H  0.48114866  0.28588620  0.04370704     0.12830
H2097       H  0.38035239  0.17874451  0.01549422     0.12840
C2098       C  0.45029684  0.14584971  0.03584091     0.62370
F2099       F  0.44624008  0.34441443  0.02484805    -0.22800
F2100       F  0.39032533  0.32956278  0.06000743    -0.20130
F2101       F  0.38888141  0.32918263  0.99368264    -0.19810
F2102       F  0.43391919  0.14001924  0.07304149    -0.19860
F2103       F  0.49024911  0.13502368  0.03654422    -0.20180
F2104       F  0.43046436  0.11943259  0.01007158    -0.22860
C2105       C  0.57519205  0.16102681  0.02327069    -0.05690
C2106       C  0.54910761  0.19212933  0.03851642     0.00230
C2107       C  0.54912033  0.19445332  0.08106393    -0.08340
C2108       C  0.57423937  0.16772287  0.10339031    -0.05710
C2109       C  0.60197842  0.13873177  0.08759121     0.00220
C2110       C  0.60511903  0.14038961  0.04517395    -0.08250
C2111       C  0.64186864  0.12807053  0.02041754     0.62130
H2112       H  0.57563771  0.15440364  0.99218966     0.12830
H2113       H  0.57299953  0.17048794  0.13465201     0.12840
C2114       C  0.52242072  0.22344329  0.10481877     0.62370
F2115       F  0.64694136  0.15347334  0.98819980    -0.22800
F2116       F  0.63736137  0.08851432  0.00581807    -0.20130
F2117       F  0.67691674  0.13276512  0.04108068    -0.19810
F2118       F  0.52470641  0.26255699  0.08992689    -0.19860
F2119       F  0.53412786  0.22669765  0.14373166    -0.20180
F2120       F  0.48295538  0.20908883  0.10472262    -0.22860
C2121       C  0.44945254  0.52590831  0.68447853    -0.05690
C2122       C  0.46599104  0.48805266  0.69495675     0.00230
C2123       C  0.43753255  0.45503174  0.69179496    -0.08340
C2124       C  0.39882920  0.46186384  0.70689402    -0.05710
C2125       C  0.38717861  0.50229113  0.71558786     0.00220
C2126       C  0.40966472  0.53477570  0.69656306    -0.08250
C2127       C  0.39448535  0.57831526  0.69110335     0.62130
H2128       H  0.46808026  0.54958538  0.67158277     0.12830
H2129       H  0.37786174  0.43612480  0.71047046     0.12840
C2130       C  0.44076954  0.42228532  0.66019241     0.62370
F2131       F  0.41894175  0.60053033  0.66530931    -0.22800
F2132       F  0.39383441  0.59935705  0.72657710    -0.20130
F2133       F  0.35625736  0.57705692  0.67562098    -0.19810
F2134       F  0.44013942  0.38377832  0.67713084    -0.19860
F2135       F  0.47525805  0.42785450  0.63745515    -0.20180
F2136       F  0.40814457  0.42453769  0.63521146    -0.22860
C2137       C  0.47663953  0.52676343  0.77461880    -0.05690
C2138       C  0.50951638  0.50464745  0.75924413     0.00230
C2139       C  0.54257205  0.49742144  0.78543803    -0.08340
C2140       C  0.53715291  0.50588950  0.82572303    -0.05710
C2141       C  0.50158824  0.52308216  0.84022221     0.00220
C2142       C  0.47215237  0.53688518  0.81413817    -0.08250
C2143       C  0.43325807  0.55722615  0.82801319     0.62130
H2144       H  0.45147204  0.53250164  0.75676952     0.12830
H2145       H  0.56009295  0.49700981  0.84641293     0.12840
C2146       C  0.58292078  0.47815925  0.77460201     0.62370
F2147       F  0.40891682  0.56813370  0.79719044    -0.22800
F2148       F  0.44188657  0.59290190  0.84897891    -0.20130
F2149       F  0.41135505  0.53000401  0.85112762    -0.19810
F2150       F  0.61378799  0.50480957  0.78586756    -0.19860
F2151       F  0.58820943  0.46976620  0.73518460    -0.20180
F2152       F  0.58672829  0.44158146  0.79480190    -0.22860
C2153       C  0.56085449  0.49910570  0.66036540    -0.05690
C2154       C  0.53842934  0.51537909  0.69189650     0.00230
C2155       C  0.53890752  0.56097360  0.69190256    -0.08340
C2156       C  0.55570245  0.58326357  0.65935665    -0.05710
C2157       C  0.58085197  0.56777409  0.62969076     0.00220
C2158       C  0.57881487  0.52241935  0.62859312    -0.08250
C2159       C  0.58708360  0.49301586  0.59418921     0.62130
H2160       H  0.56278448  0.46640211  0.65865072     0.12830
H2161       H  0.54495295  0.61375794  0.65434787     0.12840
C2162       C  0.52323989  0.59013012  0.72462903     0.62370
F2163       F  0.61662381  0.46639368  0.60547485    -0.22800
F2164       F  0.59747937  0.51042781  0.55893419    -0.20130
F2165       F  0.55250250  0.46964763  0.58682726    -0.19810
F2166       F  0.54109150  0.58153677  0.76003693    -0.19860
F2167       F  0.48196077  0.58953628  0.72799239    -0.20180
F2168       F  0.53252754  0.63107472  0.71732122    -0.22860
C2169       C  0.48824587  0.26742442  0.57844325    -0.05690
C2170       C  0.47018934  0.23148882  0.59336902     0.00230
C2171       C  0.42952384  0.22414387  0.58249460    -0.08340
C2172       C  0.41703466  0.23825206  0.54628288    -0.05710
C2173       C  0.44127804  0.26500366  0.52365761     0.00220
C2174       C  0.47046722  0.28781446  0.54688479    -0.08250
C2175       C  0.48371263  0.33189086  0.53949765     0.62130
H2176       H  0.51400821  0.28127535  0.59322021     0.12830
H2177       H  0.38703210  0.23074492  0.53801501     0.12840
C2178       C  0.39767431  0.21005918  0.61178769     0.62370
F2179       F  0.47398867  0.35543640  0.57219559    -0.22800
F2180       F  0.46448009  0.34863854  0.50794130    -0.20130
F2181       F  0.52503944  0.33429005  0.53351475    -0.19810
F2182       F  0.39109999  0.24175440  0.63831840    -0.19860
F2183       F  0.41107248  0.17545701  0.63060316    -0.20180
F2184       F  0.36081026  0.20115131  0.59489838    -0.22860
C2185       C  0.66837571  0.20928415  0.77971896    -0.05690
C2186       C  0.64109460  0.23540351  0.76214158     0.00230
C2187       C  0.64794215  0.27869095  0.76552418    -0.08340
C2188       C  0.68720999  0.29264209  0.77277852    -0.05710
C2189       C  0.71840294  0.26438838  0.77655989     0.00220
C2190       C  0.70516186  0.22577148  0.79268226    -0.08250
C2191       C  0.72539807  0.20495418  0.82639187     0.62130
H2192       H  0.65969093  0.17770412  0.78633847     0.12830
H2193       H  0.69412372  0.32525078  0.77254692     0.12840
C2194       C  0.61451387  0.30978925  0.76329262     0.62370
F2195       F  0.69757699  0.19932519  0.85666263    -0.22800
F2196       F  0.75657879  0.22893926  0.84094689    -0.20130
F2197       F  0.73926102  0.16679444  0.81470031    -0.19810
F2198       F  0.59065773  0.30689318  0.79680910    -0.19860
F2199       F  0.59147213  0.30198789  0.73071260    -0.20180
F2200       F  0.62924948  0.34988898  0.76081458    -0.22860
C2201       C  0.52366834  0.40468249  0.70232681    -0.05690
C2202       C  0.51056232  0.43578770  0.72914365     0.00230
C2203       C  0.49336299  0.41740327  0.76547433    -0.08340
C2204       C  0.50314775  0.37689516  0.77636220    -0.05710
C2205       C  0.50712483  0.34658342  0.74785982     0.00220
C2206       C  0.51713034  0.36116651  0.70895668    -0.08250
C2207       C  0.51662505  0.33292179  0.67316764     0.62130
H2208       H  0.53398059  0.41345423  0.67375832     0.12830
H2209       H  0.49575295  0.36657517  0.80596911     0.12840
C2210       C  0.45743206  0.43122232  0.79091770     0.62370
F2211       F  0.51560139  0.35486804  0.63853609    -0.22800
F2212       F  0.48242508  0.30816544  0.67448539    -0.20130
F2213       F  0.55072500  0.30928837  0.67123005    -0.19810
F2214       F  0.43013122  0.39866683  0.79579299    -0.19860
F2215       F  0.43507001  0.46162406  0.77542627    -0.20180
F2216       F  0.47060177  0.44265235  0.82778014    -0.22860
C2217       C  0.54371681  0.21831199  0.89822683    -0.05690
C2218       C  0.50396610  0.21242277  0.88630103     0.00230
C2219       C  0.47760779  0.18888125  0.91026759    -0.08340
C2220       C  0.49027781  0.17880534  0.94838818    -0.05710
C2221       C  0.52484436  0.19752681  0.96540719     0.00220
C2222       C  0.55537913  0.21115790  0.93701304    -0.08250
C2223       C  0.59853057  0.22535467  0.94525940     0.62130
H2224       H  0.56549777  0.23135547  0.87746206     0.12830
H2225       H  0.47173392  0.15836692  0.96509069     0.12840
C2226       C  0.43658463  0.17463182  0.89560590     0.62370
F2227       F  0.62478692  0.20118533  0.92353680    -0.22800
F2228       F  0.60910593  0.22318599  0.98391745    -0.20130
F2229       F  0.60394130  0.26592300  0.93365917    -0.19810
F2230       F  0.44131723  0.15143002  0.86163530    -0.19860
F2231       F  0.41336265  0.20851764  0.88757386    -0.20180
F2232       F  0.41595777  0.15079165  0.92309498    -0.22860
C2233       C  0.49879614  0.08315712  0.76348523    -0.05690
C2234       C  0.48429163  0.09384408  0.72602420     0.00230
C2235       C  0.45256169  0.06883023  0.71011600    -0.08340
C2236       C  0.44060725  0.03287927  0.73060857    -0.05710
C2237       C  0.46685709  0.01575596  0.75917727     0.00220
C2238       C  0.48547803  0.04640126  0.78245089    -0.08250
C2239       C  0.46713998  0.05296503  0.82305780     0.62130
H2240       H  0.51554106  0.10620143  0.78015830     0.12830
H2241       H  0.41946215  0.01290473  0.71531941     0.12840
C2242       C  0.43422059  0.07402660  0.66949400     0.62370
F2243       F  0.49400976  0.07321450  0.84766312    -0.22800
F2244       F  0.45546182  0.01595593  0.83995781    -0.20130
F2245       F  0.43303508  0.07673218  0.81977120    -0.19810
F2246       F  0.45136153  0.10567542  0.64788864    -0.19860
F2247       F  0.39341764  0.08012229  0.67341933    -0.20180
F2248       F  0.43880935  0.03839740  0.64762365    -0.22860
C2249       C  0.18508482  0.21653434  0.80933747    -0.05690
C2250       C  0.21380927  0.20358557  0.78192615     0.00230
C2251       C  0.24810263  0.18300194  0.79895705    -0.08340
C2252       C  0.26027616  0.19418383  0.83691394    -0.05710
C2253       C  0.23659952  0.21882757  0.86093827     0.00220
C2254       C  0.19657025  0.22752597  0.84791552    -0.08250
C2255       C  0.16490808  0.24795193  0.87317604     0.62130
H2256       H  0.15496195  0.22290896  0.79936220     0.12830
H2257       H  0.28759747  0.18131057  0.84884306     0.12840
C2258       C  0.27194819  0.14727952  0.78189925     0.62370
F2259       F  0.14136134  0.27373543  0.85114753    -0.22800
F2260       F  0.18234613  0.27169993  0.90242578    -0.20130
F2261       F  0.13984310  0.21762764  0.88869503    -0.19810
F2262       F  0.31128286  0.16008291  0.77471043    -0.19860
F2263       F  0.25575858  0.13008940  0.74863007    -0.20180
F2264       F  0.27302132  0.11597823  0.80914009    -0.22860
C2265       C  0.12278742  0.17768746  0.66720080    -0.05690
C2266       C  0.12648887  0.13396539  0.66666746     0.00230
C2267       C  0.14803922  0.11922547  0.70050261    -0.08340
C2268       C  0.17417561  0.14709581  0.72199566    -0.05710
C2269       C  0.17698084  0.19032215  0.71574815     0.00220
C2270       C  0.14287306  0.20477656  0.69392414    -0.08250
C2271       C  0.12096387  0.24502130  0.70256446     0.62130
H2272       H  0.10197391  0.19214184  0.64777950     0.12830
H2273       H  0.18904639  0.13537421  0.74726641     0.12840
C2274       C  0.14061517  0.07713936  0.71922107     0.62370
F2275       F  0.08051932  0.24190973  0.69265526    -0.22800
F2276       F  0.13749225  0.27716503  0.68115884    -0.20130
F2277       F  0.12139963  0.25404590  0.74223144    -0.19810
F2278       F  0.17364163  0.06522754  0.74077171    -0.19860
F2279       F  0.13344877  0.04640833  0.69211125    -0.20180
F2280       F  0.10787075  0.07949414  0.74463461    -0.22860
C2281       C  0.19470643  0.29443382  0.76093478    -0.05690
C2282       C  0.20370965  0.26657127  0.72979304     0.00230
C2283       C  0.21952588  0.28611592  0.69443463    -0.08340
C2284       C  0.23751136  0.32548827  0.69753170    -0.05710
C2285       C  0.23908716  0.34753842  0.73310011     0.00220
C2286       C  0.21415148  0.33346956  0.76450603    -0.08250
C2287       C  0.20865230  0.35848909  0.80208342     0.62130
H2288       H  0.17546194  0.28509147  0.78463513     0.12830
H2289       H  0.25219659  0.33864147  0.67169121     0.12840
C2290       C  0.22381951  0.26629085  0.65373631     0.62370
F2291       F  0.18587304  0.33766764  0.83006724    -0.22800
F2292       F  0.18889534  0.39426932  0.79379486    -0.20130
F2293       F  0.24569275  0.36766965  0.81858946    -0.19810
F2294       F  0.20338187  0.28972639  0.62685623    -0.19860
F2295       F  0.20893807  0.22666501  0.65120039    -0.20180
F2296       F  0.26416641  0.26571240  0.64263543    -0.22860
C2297       C  0.27239705  0.18928770  0.69818524    -0.05690
C2298       C  0.25656817  0.21838688  0.72491659     0.00230
C2299       C  0.28512170  0.25031814  0.73827852    -0.08340
C2300       C  0.31926034  0.25636461  0.71544515    -0.05710
C2301       C  0.33923274  0.22075103  0.70636425     0.00220
C2302       C  0.31502034  0.18563020  0.69511285    -0.08250
C2303       C  0.33210991  0.14359470  0.68677196     0.62130
H2304       H  0.25273007  0.16564453  0.68637342     0.12830
H2305       H  0.33710695  0.28442822  0.71954096     0.12840
C2306       C  0.28944242  0.27135539  0.77869401     0.62370
F2307       F  0.30277369  0.11280350  0.68892974    -0.22800
F2308       F  0.36124336  0.13494022  0.71413484    -0.20130
F2309       F  0.34799286  0.14230828  0.64933124    -0.19810
F2310       F  0.25559581  0.27190801  0.80168631    -0.19860
F2311       F  0.30238648  0.31188479  0.77460212    -0.20180
F2312       F  0.31878958  0.25118715  0.79940532    -0.22860
C2313       C  0.02802945  0.01094516  0.79459491    -0.05690
C2314       C  0.99366832  0.99103808  0.77880942     0.00230
C2315       C  0.97626412  0.95672408  0.80212459    -0.08340
C2316       C  0.99879313  0.94185464  0.83311915    -0.05710
C2317       C  0.01917930  0.97087204  0.85461777     0.00220
C2318       C  0.03915981  0.00342511  0.83383915    -0.08250
C2319       C  0.07068575  0.03060102  0.85365869     0.62130
H2320       H  0.04327253  0.03485990  0.77787870     0.12830
H2321       H  0.98813180  0.91479921  0.84902230     0.12840
C2322       C  0.93317281  0.93827392  0.80309210     0.62370
F2323       F  0.08478472  0.06151040  0.82898065    -0.22800
F2324       F  0.10307881  0.00697763  0.86392219    -0.20130
F2325       F  0.05493410  0.04899846  0.88712798    -0.19810
F2326       F  0.91084290  0.94346714  0.77022622    -0.19860
F2327       F  0.91255045  0.95567930  0.83453664    -0.20180
F2328       F  0.93378268  0.89623986  0.80954376    -0.22860
C2329       C  0.90606802  0.00737339  0.71279148    -0.05690
C2330       C  0.93472117  0.01497369  0.74213120     0.00230
C2331       C  0.91726177  0.03039140  0.77894651    -0.08340
C2332       C  0.87659667  0.02156971  0.78814466    -0.05710
C2333       C  0.85064466  0.00167784  0.76211996     0.00220
C2334       C  0.86488261  0.99809801  0.72245380    -0.08250
C2335       C  0.83723029  0.98377386  0.69070931     0.62130
H2336       H  0.91693749  0.00488249  0.68273997     0.12830
H2337       H  0.86479632  0.03071366  0.81677109     0.12840
C2338       C  0.93566957  0.06048011  0.80854924     0.62370
F2339       F  0.85600771  0.98379134  0.65410685    -0.22800
F2340       F  0.80477643  0.00967749  0.68937009    -0.20130
F2341       F  0.82470356  0.94415942  0.69944579    -0.19810
F2342       F  0.91589767  0.09763915  0.80609583    -0.19860
F2343       F  0.97589668  0.06845738  0.80346831    -0.20180
F2344       F  0.92928807  0.04591117  0.84604352    -0.22860
C2345       C  0.95308867  0.92814113  0.70643308    -0.05690
C2346       C  0.98582152  0.95326709  0.71976109     0.00230
C2347       C  0.02115196  0.92977982  0.72990676    -0.08340
C2348       C  0.01527803  0.88915017  0.74274802    -0.05710
C2349       C  0.97766843  0.86875138  0.74258700     0.00220
C2350       C  0.94708745  0.88678769  0.71958885    -0.08250
C2351       C  0.90716139  0.86486837  0.71144681     0.62130
H2352       H  0.93008479  0.94107210  0.68883768     0.12830
H2353       H  0.04051917  0.87457794  0.75637090     0.12840
C2354       C  0.06469055  0.94537019  0.73504016     0.62370
F2355       F  0.88106946  0.88948384  0.69112401    -0.22800
F2356       F  0.88835063  0.85377212  0.74640429    -0.20130
F2357       F  0.91347830  0.83034670  0.68858738    -0.19810
F2358       F  0.07659112  0.93957387  0.77349677    -0.19860
F2359       F  0.07134660  0.98608552  0.72636732    -0.20180
F2360       F  0.08973716  0.92231622  0.71091407    -0.22860
C2361       C  0.02486197  0.01509234  0.67179752    -0.05690
C2362       C  0.00634079  0.03170915  0.70645653     0.00230
C2363       C  0.01467034  0.07576920  0.70969386    -0.08340
C2364       C  0.04701758  0.09495986  0.68755496    -0.05710
C2365       C  0.06956936  0.07654663  0.65645234     0.00220
C2366       C  0.05883229  0.03297503  0.65083830    -0.08250
C2367       C  0.08236175  0.00065006  0.62692339     0.62130
H2368       H  0.01494800  0.98495168  0.66203804     0.12830
H2369       H  0.05328153  0.12727797  0.69349224     0.12840
C2370       C  0.98711299  0.10775474  0.72818246     0.62370
F2371       F  0.07755111  0.96182280  0.64308262    -0.22800
F2372       F  0.12347511  0.00757035  0.62658785    -0.20130
F2373       F  0.06750853  0.99772459  0.58924105    -0.19810
F2374       F  0.00385126  0.12303605  0.76246662    -0.19860
F2375       F  0.94856384  0.09352826  0.73425714    -0.20180
F2376       F  0.98306353  0.14073089  0.70305827    -0.22860
C2377       C  0.67319407  0.77465575  0.71625987    -0.05690
C2378       C  0.71215266  0.75804667  0.72109595     0.00230
C2379       C  0.74387219  0.78840312  0.73188798    -0.08340
C2380       C  0.73542791  0.83027066  0.73012379    -0.05710
C2381       C  0.69654064  0.84357964  0.73606250     0.00220
C2382       C  0.66411604  0.81557286  0.72852201    -0.08250
C2383       C  0.62081290  0.82634881  0.73936118     0.62130
H2384       H  0.64852427  0.75398283  0.70930868     0.12830
H2385       H  0.75989363  0.85284075  0.73288914     0.12840
C2386       C  0.78488598  0.78356071  0.75210682     0.62370
F2387       F  0.59494999  0.79254278  0.73667021    -0.22800
F2388       F  0.60670978  0.85577210  0.71484301    -0.20130
F2389       F  0.61894944  0.84134890  0.77755713    -0.19810
F2390       F  0.81579613  0.79551911  0.72676347    -0.19860
F2391       F  0.79236263  0.74532102  0.76616763    -0.20180
F2392       F  0.78695011  0.80947394  0.78474935    -0.22860
C2393       C  0.77854885  0.66467353  0.73535054    -0.05690
C2394       C  0.75926803  0.69658893  0.71460917     0.00230
C2395       C  0.78490763  0.71810890  0.68681064    -0.08340
C2396       C  0.82695902  0.71768042  0.69271656    -0.05710
C2397       C  0.84323872  0.69750957  0.72507464     0.00220
C2398       C  0.81975819  0.66759226  0.74472803    -0.08250
C2399       C  0.83552366  0.64356787  0.77948354     0.62130
H2400       H  0.76144041  0.63902483  0.74680084     0.12830
H2401       H  0.84676724  0.73611971  0.67397050     0.12840
C2402       C  0.77103578  0.74200636  0.65113308     0.62370
F2403       F  0.81806351  0.60464542  0.78044345    -0.22800
F2404       F  0.82608344  0.66425083  0.81385264    -0.20130
F2405       F  0.87694741  0.63906851  0.77838377    -0.19810
F2406       F  0.72981045  0.74092285  0.64593928    -0.19860
F2407       F  0.78885387  0.72530078  0.61776329    -0.20180
F2408       F  0.78343451  0.78279592  0.65414185    -0.22860
C2409       C  0.71577727  0.66914334  0.79389678    -0.05690
C2410       C  0.71054103  0.70635836  0.77403851     0.00230
C2411       C  0.71426925  0.74152106  0.80035742    -0.08340
C2412       C  0.74447294  0.74203971  0.82873946    -0.05710
C2413       C  0.75645220  0.70538548  0.84507506     0.00220
C2414       C  0.73952958  0.66772089  0.82859695    -0.08250
C2415       C  0.74432276  0.62576726  0.84721829     0.62130
H2416       H  0.70496066  0.64084202  0.78023795     0.12830
H2417       H  0.75001507  0.77047472  0.84504549     0.12840
C2418       C  0.67987099  0.76930297  0.81281994     0.62370
F2419       F  0.75030794  0.59591810  0.81858868    -0.22800
F2420       F  0.70926508  0.61579525  0.86752924    -0.20130
F2421       F  0.77671833  0.62481315  0.87250044    -0.19810
F2422       F  0.64539660  0.76333910  0.79164221    -0.19860
F2423       F  0.69217196  0.81009046  0.81082122    -0.20180
F2424       F  0.66980306  0.76134336  0.85158572    -0.22860
C2425       C  0.70001663  0.66195533  0.66217455    -0.05690
C2426       C  0.68408427  0.68057121  0.69756988     0.00230
C2427       C  0.64086158  0.67251727  0.70018601    -0.08340
C2428       C  0.61842114  0.65250880  0.66845177    -0.05710
C2429       C  0.63468328  0.63251100  0.63402324     0.00220
C2430       C  0.67718094  0.64371322  0.63015202    -0.08250
C2431       C  0.69987316  0.64547434  0.59101753     0.62130
H2432       H  0.73200614  0.66394206  0.65656639     0.12830
H2433       H  0.58659137  0.65496657  0.67126267     0.12840
C2434       C  0.61502241  0.67931209  0.73664307     0.62370
F2435       F  0.72352137  0.68093129  0.58867197    -0.22800
F2436       F  0.67485024  0.64685277  0.55934379    -0.20130
F2437       F  0.72491274  0.61236653  0.58776854    -0.19810
F2438       F  0.58334991  0.70498045  0.72820019    -0.19860
F2439       F  0.63516041  0.69534722  0.76773250    -0.20180
F2440       F  0.59992149  0.64165250  0.74896766    -0.22860
C2441       C  0.79984607  0.01253325  0.01695629    -0.05690
C2442       C  0.76985834  0.99004633  0.99593151     0.00230
C2443       C  0.78715465  0.96629972  0.96231324    -0.08340
C2444       C  0.82893969  0.96848423  0.95328291    -0.05710
C2445       C  0.85699567  0.98505302  0.97843215     0.00220
C2446       C  0.84211681  0.00598451  0.01209208    -0.08250
C2447       C  0.87067367  0.02002627  0.04376371     0.62130
H2448       H  0.79157289  0.03556550  0.03759725     0.12830
H2449       H  0.84081603  0.95423131  0.92655945     0.12840
C2450       C  0.76807332  0.93706849  0.93209357     0.62370
F2451       F  0.85090402  0.04101756  0.07374812    -0.22800
F2452       F  0.90001300  0.04543849  0.02787290    -0.20130
F2453       F  0.88875060  0.98601191  0.05977070    -0.19810
F2454       F  0.77165913  0.95429619  0.89511074    -0.19860
F2455       F  0.72915809  0.92680078  0.93817269    -0.20180
F2456       F  0.78864013  0.90016088  0.93130263    -0.22860
C2457       C  0.67472989  0.97907720  0.94771457    -0.05690
C2458       C  0.70171486  0.00350211  0.97084381     0.00230
C2459       C  0.71739120  0.03958876  0.95118191    -0.08340
C2460       C  0.71814354  0.03982082  0.91024518    -0.05710
C2461       C  0.70210309  0.00742971  0.88752426     0.00220
C2462       C  0.67620494  0.97862780  0.90620229    -0.08250
C2463       C  0.65223093  0.94465794  0.88520396     0.62130
H2464       H  0.65639911  0.95539803  0.95950164     0.12830
H2465       H  0.73471085  0.06481990  0.89604885     0.12840
C2466       C  0.73821454  0.07729934  0.96919910     0.62370
F2467       F  0.61248111  0.94529022  0.89815322    -0.22800
F2468       F  0.66791625  0.90668113  0.89405912    -0.20130
F2469       F  0.65234504  0.94832340  0.84487433    -0.19810
F2470       F  0.77863503  0.07799784  0.95832757    -0.19860
F2471       F  0.73561443  0.07956918  0.00911564    -0.20180
F2472       F  0.72058397  0.11248479  0.95492519    -0.22860
C2473       C  0.69727427  0.91163797  0.00648150    -0.05690
C2474       C  0.72002121  0.94262426  0.02445538     0.00230
C2475       C  0.75174759  0.92752364  0.04787277    -0.08340
C2476       C  0.77237215  0.89257290  0.03429756    -0.05710
C2477       C  0.75572959  0.86655349  0.00487272     0.00220
C2478       C  0.71464188  0.87414966  0.99528947    -0.08250
C2479       C  0.68838514  0.84369828  0.97438615     0.62130
H2480       H  0.66585391  0.91566990  0.00217302     0.12830
H2481       H  0.80003501  0.88437524  0.04881036     0.12840
C2482       C  0.76055979  0.94425814  0.08861190     0.62370
F2483       F  0.64856953  0.85575598  0.97168707    -0.22800
F2484       F  0.68866276  0.80846153  0.99629117    -0.20130
F2485       F  0.70314264  0.83842081  0.93652353    -0.19810
F2486       F  0.76937767  0.91234476  0.11326247    -0.19860
F2487       F  0.72721830  0.96321697  0.10483120    -0.20180
F2488       F  0.79324033  0.97109753  0.08801115    -0.22860
C2489       C  0.71844689  0.03994748  0.07243978    -0.05690
C2490       C  0.69852667  0.01429642  0.04501865     0.00230
C2491       C  0.65517698  0.01365948  0.05227836    -0.08340
C2492       C  0.63628316  0.04685501  0.07246660    -0.05710
C2493       C  0.65619377  0.07779227  0.09466296     0.00220
C2494       C  0.70027663  0.07323836  0.09406245    -0.08250
C2495       C  0.73115904  0.10319569  0.11175942     0.62130
H2496       H  0.74887678  0.03296538  0.07835964     0.12830
H2497       H  0.60384183  0.04841439  0.07072496     0.12840
C2498       C  0.62779090  0.97558583  0.04832638     0.62370
F2499       F  0.77027881  0.08863263  0.11050138    -0.22800
F2500       F  0.72269201  0.11019605  0.15035305    -0.20130
F2501       F  0.73222461  0.13951079  0.09113551    -0.19810
F2502       F  0.64623243  0.94173190  0.06393924    -0.19860
F2503       F  0.61676048  0.96908318  0.01005578    -0.20180
F2504       F  0.59196336  0.97937668  0.06955107    -0.22860
loop_ 
_geom_bond_atom_site_label_1 
_geom_bond_atom_site_label_2 
_geom_bond_distance 
_geom_bond_site_symmetry_2 
_ccdc_geom_bond_type 
C1         C2442   1.651   1_554  S
C1         C2458   1.584   1_564  S
C1         C2474   1.567       .  S
C1         C2490   1.645   1_565  S
C2         C2378   1.593       .  S
C2         C2394   1.585       .  S
C2         C2410   1.624       .  S
C2         C2426   1.690       .  S
C3         C2314   1.570       .  S
C3         C2330   1.597   1_565  S
C3         C2346   1.618       .  S
C3         C2362   1.665   1_665  S
C4         C2250   1.586       .  S
C4         C2269   1.631       .  S
C4         C2282   1.599       .  S
C4         C2298   1.566       .  S
O5          Ni11   1.954       .  S
O5           C26   1.279       .  A
O6          Ni29   1.879       .  S
O6           C15   1.245       .  A
O7          Ni11   1.910       .  S
O7          Ni29   1.890       .  S
O7          Ni23   1.876       .  S
O7           H30   0.955       .  S
C8           O25   1.254       .  A
C8           O17   1.284       .  A
C8         C2218   1.466       .  S
O9          Ni28   1.941       .  S
O9           C15   1.282       .  A
O10         Ni28   1.968       .  S
O10          C12   1.276       .  A
Ni11         O14   1.976       .  S
Ni11         O16   1.941       .  S
C12          O22   1.276       .  A
C12        C2205   1.541       .  S
O13         Ni29   1.801       .  S
O13          C19   1.237       .  A
O14          C19   1.284       .  A
C15        C2301   1.486       .  S
O16          C18   1.275       .  A
O17         Ni28   1.963       .  S
C18          O24   1.266       .  A
C18        C2234   1.493       .  S
C19        C2170   1.455       .  S
H20          O21   0.967       .  S
O21         Ni29   1.852       .  S
O21         Ni23   1.888       .  S
O21         Ni28   1.905       .  S
O22         Ni23   1.970       .  S
Ni23         O27   1.835       .  S
Ni23         O25   1.848       .  S
O24         Ni29   1.920       .  S
C26          O27   1.246       .  A
C26        C2186   1.451       .  S
C31        C2122   1.584       .  S
C31        C2138   1.550       .  S
C31        C2154   1.653       .  S
C31        C2202   1.659       .  S
C32        C2074   1.617   1_554  S
C32        C2090   1.622       .  S
C32        C2106   1.635       .  S
C32        C2221   1.602   1_554  S
O33         Ni39   1.882       .  S
O33          C54   1.249       .  A
O34         Ni57   1.979       .  S
O34          C43   1.290       .  A
O35         Ni39   1.842       .  S
O35         Ni57   1.874   1_556  S
O35         Ni51   1.904       .  S
O35          H58   0.951       .  S
C36          O53   1.301   1_554  A
C36          O45   1.273       .  A
C36        C2042   1.458       .  S
O37         Ni56   1.878       .  S
O37          C43   1.259       .  A
O38         Ni56   1.869       .  S
O38          C40   1.251   1_554  A
Ni39         O42   1.897       .  S
Ni39         O44   1.852       .  S
C40          O50   1.284       .  A
C40        C2477   1.510   1_556  S
O41         Ni57   1.959   1_556  S
O41          C47   1.308       .  A
O42          C47   1.277       .  A
C43        C2058   1.511       .  S
O44          C46   1.244       .  A
O45         Ni56   1.862       .  S
C46          O52   1.271   1_556  A
C46        C2010   1.470       .  S
C47        C2026   1.482       .  S
H48          O49   0.964       .  S
O49         Ni57   1.919       .  S
O49         Ni51   1.890   1_554  S
O49         Ni56   1.874       .  S
O50         Ni51   1.996       .  S
Ni51         O55   1.980       .  S
Ni51         O53   1.970       .  S
O52         Ni57   1.960       .  S
C54          O55   1.303       .  A
C54        C2413   1.489       .  S
C59        C1946   1.690       .  S
C59        C1962   1.653       .  S
C59        C1978   1.638       .  S
C59        C1994   1.588       .  S
C60        C1898   1.637       .  S
C60        C1914   1.633       .  S
C60        C1930   1.567   1_655  S
C60        C1981   1.667       .  S
C61        C1866   1.598       .  S
C61        C1882   1.593   1_556  S
C61        C1965   1.632       .  S
C61        C2013   1.593       .  S
C62        C1802   1.605       .  S
C62        C1821   1.584       .  S
C62        C1837   1.596   1_545  S
C62        C1853   1.629       .  S
C63        C1789   1.634       .  S
C63        C1850   1.612       .  S
C63        C2266   1.632       .  S
C63        C2365   1.652       .  S
C64        C1738   1.591       .  S
C64        C1754   1.629   1_554  S
C64        C1770   1.616       .  S
C64        C2045   1.570   1_455  S
C65        C1674   1.594   1_556  S
C65        C1690   1.611       .  S
C65        C1706   1.650   1_556  S
C65        C1722   1.586       .  S
C66        C1610   1.597       .  S
C66        C1626   1.616       .  S
C66        C1642   1.621       .  S
C66        C1658   1.688       .  S
C67        C1594   1.641       .  S
C67        C1661   1.683       .  S
C67        C1709   1.651       .  S
C67        C1773   1.640       .  S
C68        C1530   1.610       .  S
C68        C1546   1.695       .  S
C68        C1562   1.630       .  S
C68        C1578   1.621       .  S
O69         Ni75   1.882       .  S
O69          C90   1.260       .  A
O70         Ni93   1.958       .  S
O70          C79   1.289       .  A
O71         Ni75   1.883       .  S
O71         Ni93   1.881       .  S
O71         Ni87   1.897       .  S
O71          H94   0.965       .  S
C72          O89   1.304       .  A
C72          O81   1.273       .  A
C72        C1482   1.478       .  S
O73         Ni92   1.893       .  S
O73          C79   1.261       .  A
O74         Ni92   1.875       .  S
O74          C76   1.242       .  A
Ni75         O78   1.894       .  S
Ni75         O80   1.883       .  S
C76          O86   1.286       .  A
C76        C1514   1.535       .  S
O77         Ni93   1.958       .  S
O77          C83   1.300       .  A
O78          C83   1.271       .  A
C79        C1629   1.487       .  S
O80          C82   1.258       .  A
O81         Ni92   1.867       .  S
C82          O88   1.284       .  A
C82        C1581   1.551       .  S
C83        C1834   1.500       .  S
H84          O85   0.958       .  S
O85         Ni93   1.891       .  S
O85         Ni87   1.885       .  S
O85         Ni92   1.857       .  S
O86         Ni87   2.021       .  S
Ni87         O91   1.977       .  S
Ni87         O89   1.969       .  S
O88         Ni93   2.016       .  S
C90          O91   1.299       .  A
C90        C1498   1.505       .  S
O95        Ni101   1.911       .  S
O95         C116   1.267       .  A
O96        Ni119   1.953       .  S
O96         C105   1.284       .  A
O97        Ni101   1.856       .  S
O97        Ni119   1.879       .  S
O97        Ni113   1.883       .  S
O97         H120   0.958       .  S
C98         O115   1.293       .  A
C98         O107   1.271       .  A
C98        C1933   1.459       .  S
O99        Ni118   1.867       .  S
O99         C105   1.255       .  A
O100       Ni118   1.871       .  S
O100        C102   1.254       .  A
Ni101       O104   1.897       .  S
Ni101       O106   1.879       .  S
C102        O112   1.282       .  A
C102       C1450   1.517       .  S
O103       Ni119   1.937       .  S
O103        C109   1.296       .  A
O104        C109   1.278       .  A
C105       C2285   1.489       .  S
O106        C108   1.251       .  A
O107       Ni118   1.866       .  S
C108        O114   1.275       .  A
C108       C1693   1.506       .  S
C109       C2125   1.476       .  S
H110        O111   0.963       .  S
O111       Ni119   1.894       .  S
O111       Ni113   1.854       .  S
O111       Ni118   1.863       .  S
O112       Ni113   1.997       .  S
Ni113       O117   1.924       .  S
Ni113       O115   1.936       .  S
O114       Ni119   1.962       .  S
C116        O117   1.297       .  A
C116       C1466   1.482       .  S
O121       Ni127   1.903       .  S
O121        C142   1.261       .  A
O122       Ni145   1.934       .  S
O122        C131   1.281       .  A
O123       Ni127   1.865       .  S
O123       Ni145   1.888   1_455  S
O123       Ni139   1.898       .  S
O123        H146   0.962       .  S
C124        O141   1.279   1_655  A
C124        O133   1.275       .  A
C124       C1418   1.454   1_655  S
O125       Ni144   1.879       .  S
O125        C131   1.256       .  A
O126       Ni144   1.905       .  S
O126        C128   1.264       .  A
Ni127       O130   1.899       .  S
Ni127       O132   1.896       .  S
C128        O138   1.270   1_655  A
C128       C1917   1.515       .  S
O129       Ni145   1.967       .  S
O129        C135   1.296       .  A
O130        C135   1.275   1_455  A
C131       C2397   1.456       .  S
O132        C134   1.266   1_455  A
O133       Ni144   1.900       .  S
C134        O140   1.271       .  A
C134       C2349   1.516       .  S
C135       C1757   1.482       .  S
H136        O137   0.958       .  S
O137       Ni145   1.912       .  S
O137       Ni139   1.873   1_655  S
O137       Ni144   1.871       .  S
O138       Ni139   1.932       .  S
Ni139       O143   1.923       .  S
Ni139       O141   1.910       .  S
O140       Ni145   1.955       .  S
C142        O143   1.274       .  A
C142       C1434   1.467       .  S
C147       C1405   1.667       .  S
C147       C1437   1.599       .  S
C147       C1469   1.570       .  S
C147       C1501   1.600       .  S
O148       Ni154   1.840       .  S
O148        C169   1.254       .  A
O149       Ni172   1.924       .  S
O149        C158   1.276       .  A
O150       Ni154   1.909       .  S
O150       Ni172   1.957       .  S
O150       Ni166   1.915       .  S
O150        H173   0.965       .  S
C151        O168   1.305       .  A
C151        O160   1.270       .  A
C151       C1389   1.458       .  S
O152       Ni171   1.867       .  S
O152        C158   1.256       .  A
O153       Ni171   1.883       .  S
O153        C155   1.256       .  A
Ni154       O157   1.853       .  S
Ni154       O159   1.887       .  S
C155        O165   1.289       .  A
C155       C1565   1.540       .  S
O156       Ni172   1.909       .  S
O156        C162   1.248       .  A
O157        C162   1.250       .  A
C158       C1338   1.472       .  S
O159        C161   1.265       .  A
O160       Ni171   1.859       .  S
C161        O167   1.298       .  A
C161       C1370   1.517       .  S
C162       C1354   1.499       .  S
H163        O164   0.965       .  S
O164       Ni172   1.859       .  S
O164       Ni166   1.873       .  S
O164       Ni171   1.863       .  S
O165       Ni166   2.013       .  S
Ni166       O170   1.972       .  S
Ni166       O168   1.958       .  S
O167       Ni172   2.008       .  S
C169        O170   1.294       .  A
C169       C1613   1.475       .  S
C174       C1290   1.639       .  S
C174       C1309   1.686       .  S
C174       C1322   1.670       .  S
C174       C1402   1.624       .  S
C175       C1258   1.615       .  S
C175       C1274   1.626       .  S
C175       C1325   1.666       .  S
C175       C2237   1.618   1_565  S
C176       C1245   1.620       .  S
C176       C1306   1.682       .  S
C176       C1373   1.620   1_556  S
C176       C2029   1.601       .  S
C177       C1178   1.631       .  S
C177       C1194   1.561       .  S
C177       C1210   1.696       .  S
C177       C1226   1.653       .  S
O178       Ni184   1.860       .  S
O178        C199   1.245       .  A
O179       Ni202   1.905       .  S
O179        C188   1.277       .  A
O180       Ni184   1.848       .  S
O180       Ni202   1.855       .  S
O180       Ni196   1.901       .  S
O180        H203   0.966       .  S
C181        O198   1.308       .  A
C181        O190   1.280       .  A
C181       C1197   1.446       .  S
O182       Ni201   1.883       .  S
O182        C188   1.252       .  A
O183       Ni201   1.863       .  S
O183        C185   1.236       .  A
Ni184       O187   1.907       .  S
Ni184       O189   1.883       .  S
C185        O195   1.274       .  A
C185       C1162   1.520       .  S
O186       Ni202   1.864       .  S
O186        C192   1.267       .  A
O187        C192   1.276       .  A
C188       C1114   1.433       .  S
O189        C191   1.259       .  A
O190       Ni201   1.851       .  S
C191        O197   1.280       .  A
C191       C1130   1.485       .  S
C192       C1885   1.452       .  S
H193        O194   0.966       .  S
O194       Ni202   1.869       .  S
O194       Ni196   1.855       .  S
O194       Ni201   1.841       .  S
O195       Ni196   2.012       .  S
Ni196       O200   1.935       .  S
Ni196       O198   1.970       .  S
O197       Ni202   1.961       .  S
C199        O200   1.289       .  A
C199       C1146   1.467       .  S
C204       C1066   1.584       .  S
C204       C1085   1.621       .  S
C204       C1098   1.590       .  S
C204       C1149   1.580       .  S
O205       Ni211   1.890       .  S
O205        C226   1.262       .  A
O206       Ni229   1.922       .  S
O206        C215   1.278       .  A
O207       Ni211   1.861       .  S
O207       Ni229   1.869   1_565  S
O207       Ni223   1.894       .  S
O207        H230   0.957       .  S
C208        O225   1.297   1_545  A
C208        O217   1.278       .  A
C208       C2461   1.478       .  S
O209       Ni228   1.893       .  S
O209        C215   1.261       .  A
O210       Ni228   1.881       .  S
O210        C212   1.259   1_545  A
Ni211       O214   1.916       .  S
Ni211       O216   1.898       .  S
C212        O222   1.279       .  A
C212       C2333   1.516   1_565  S
O213       Ni229   1.895       .  S
O213        C219   1.286   1_545  A
O214        C219   1.280       .  A
C215       C1050   1.488       .  S
O216        C218   1.258       .  A
O217       Ni228   1.875       .  S
C218        O224   1.271   1_565  A
C218       C1277   1.519       .  S
C219       C1034   1.464       .  S
H220        O221   0.965       .  S
O221       Ni229   1.883       .  S
O221       Ni223   1.882   1_545  S
O221       Ni228   1.851       .  S
O222       Ni223   1.988       .  S
Ni223       O227   1.948       .  S
Ni223       O225   1.960       .  S
O224       Ni229   1.963       .  S
C226        O227   1.298       .  A
C226       C2381   1.485       .  S
C231       C1018   1.619       .  S
C231       C1053   1.601       .  S
C231       C1997   1.619       .  S
C231       C2189   1.597       .  S
O232       Ni238   1.884       .  S
O232        C253   1.244       .  A
O233       Ni256   1.963       .  S
O233        C242   1.291       .  A
O234       Ni238   1.858       .  S
O234       Ni256   1.871       .  S
O234       Ni250   1.895       .  S
O234        H257   0.966       .  S
C235        O252   1.279       .  A
C235        O244   1.283       .  A
C235       C1005   1.461       .  S
O236       Ni255   1.884       .  S
O236        C242   1.256       .  A
O237       Ni255   1.896       .  S
O237        C239   1.262       .  A
Ni238       O241   1.868       .  S
Ni238       O243   1.869       .  S
C239        O249   1.282       .  A
C239       C1229   1.515       .  S
O240       Ni256   1.971       .  S
O240        C246   1.305       .  A
O241        C246   1.279       .  A
C242       C1021   1.476       .  S
O243        C245   1.242       .  A
O244       Ni255   1.917       .  S
C245        O251   1.279       .  A
C245        C986   1.530       .  S
C246        C970   1.458       .  S
H247        O248   0.966       .  S
O248       Ni256   1.913       .  S
O248       Ni250   1.865       .  S
O248       Ni255   1.850       .  S
O249       Ni250   1.969       .  S
Ni250       O254   1.918       .  S
Ni250       O252   1.907       .  S
O251       Ni256   2.002       .  S
C253        O254   1.278       .  A
C253       C1101   1.440       .  S
C258        C906   1.604       .  S
C258        C922   1.683       .  S
C258        C941   1.665       .  S
C258        C954   1.651       .  S
C259        C890   1.568       .  S
C259        C938   1.638       .  S
C259        C989   1.623   1_565  S
C259       C1037   1.542       .  S
C260        C874   1.604       .  S
C260        C925   1.640       .  S
C260       C1421   1.585       .  S
C260       C1517   1.637   1_655  S
C261        C957   1.625       .  S
C261       C1117   1.574       .  S
C261       C1341   1.604       .  S
C261       C2061   1.633       .  S
C262        C845   1.611       .  S
C262        C858   1.651       .  S
C262       C1453   1.592       .  S
C262       C1485   1.585       .  S
O263       Ni269   1.876   1_556  S
O263        C284   1.249       .  A
O264       Ni287   2.005       .  S
O264        C273   1.299       .  A
O265       Ni269   1.841       .  S
O265       Ni287   1.880       .  S
O265       Ni281   1.899   1_554  S
O265        H288   0.954       .  S
C266        O283   1.292       .  A
C266        O275   1.276       .  A
C266       C2141   1.455       .  S
O267       Ni286   1.879       .  S
O267        C273   1.246   1_556  A
O268       Ni286   1.874       .  S
O268        C270   1.251       .  A
Ni269       O272   1.875       .  S
Ni269       O274   1.870       .  S
C270        O280   1.269       .  A
C270       C1677   1.512       .  S
O271       Ni287   1.990       .  S
O271        C277   1.311       .  A
O272        C277   1.277       .  A
C273       C1242   1.512       .  S
O274        C276   1.247       .  A
O275       Ni286   1.889       .  S
C276        O282   1.281       .  A
C276       C1869   1.515       .  S
C277        C826   1.466       .  S
H278        O279   0.966       .  S
O279       Ni287   1.921   1_556  S
O279       Ni281   1.890       .  S
O279       Ni286   1.857       .  S
O280       Ni281   1.965       .  S
Ni281       O285   1.956       .  S
Ni281       O283   1.939       .  S
O282       Ni287   1.992       .  S
C284        O285   1.287       .  A
C284       C2077   1.492       .  S
C289        C810   1.635       .  S
C289        C829   1.585       .  S
C289       C1133   1.603       .  S
C289       C1357   1.578       .  S
C290        C778   1.615       .  S
C290        C797   1.614       .  S
C290        C813   1.638       .  S
C290        C861   1.647       .  S
C291        C762   1.601       .  S
C291        C781   1.603       .  S
C291        C973   1.597       .  S
C291       C2173   1.583       .  S
O292       Ni298   1.881       .  S
O292        C313   1.264   1_545  A
O293       Ni316   1.934       .  S
O293        C302   1.259       .  A
O294       Ni298   1.896   1_565  S
O294       Ni316   1.898   1_565  S
O294       Ni310   1.933       .  S
O294        H317   0.966       .  S
C295        O312   1.291       .  A
C295        O304   1.269       .  A
C295        C893   1.455       .  S
O296       Ni315   1.882       .  S
O296        C302   1.271   1_565  A
O297       Ni315   1.923       .  S
O297        C299   1.279       .  A
Ni298       O301   1.876       .  S
Ni298       O303   1.930       .  S
C299        O309   1.253       .  A
C299       C1533   1.501       .  S
O300       Ni316   1.945       .  S
O300        C306   1.284       .  A
O301        C306   1.274       .  A
C302        C746   1.509       .  S
O303        C305   1.267       .  A
O304       Ni315   1.889       .  S
C305        O311   1.258       .  A
C305        C765   1.485       .  S
C306       C1805   1.464       .  S
H307        O308   0.967   1_545  S
O308       Ni316   1.926   1_565  S
O308       Ni310   1.884       .  S
O308       Ni315   1.883       .  S
O309       Ni310   1.903       .  S
Ni310       O314   1.921       .  S
Ni310       O312   1.915       .  S
O311       Ni316   1.887       .  S
C313        O314   1.266       .  A
C313       C1261   1.471       .  S
C318        C714   1.646       .  S
C318        C730   1.587       .  S
C318        C749   1.612       .  S
C318       C1386   1.586   1_545  S
C319        C685   1.603   1_655  S
C319        C698   1.585   1_655  S
C319       C1165   1.611       .  S
C319       C1597   1.664   1_655  S
O320       Ni326   1.872       .  S
O320        C341   1.251       .  A
O321       Ni344   1.981       .  S
O321        C330   1.292   1_655  A
O322       Ni326   1.874   1_455  S
O322       Ni344   1.897   1_455  S
O322       Ni338   1.920       .  S
O322        H345   0.966       .  S
C323        O340   1.300       .  A
C323        O332   1.261       .  A
C323        C877   1.480   1_455  S
O324       Ni343   1.848       .  S
O324        C330   1.231       .  A
O325       Ni343   1.867       .  S
O325        C327   1.251       .  A
Ni326       O329   1.865       .  S
Ni326       O331   1.876       .  S
C327        O337   1.282       .  A
C327        C842   1.489       .  S
O328       Ni344   1.955       .  S
O328        C334   1.296       .  A
O329        C334   1.271       .  A
C330        C682   1.511       .  S
O331        C333   1.258       .  A
O332       Ni343   1.859       .  S
C333        O339   1.280       .  A
C333       C1181   1.482       .  S
C334        C666   1.447       .  S
H335        O336   0.966       .  S
O336       Ni344   1.914       .  S
O336       Ni338   1.890   1_655  S
O336       Ni343   1.884   1_655  S
O337       Ni338   1.967       .  S
Ni338       O342   1.982       .  S
Ni338       O340   1.960       .  S
O339       Ni344   1.955       .  S
C341        O342   1.285   1_655  A
C341       C1901   1.521       .  S
C346        C650   1.619       .  S
C346        C669   1.592       .  S
C346       C1002   1.590   1_455  S
C346       C1786   1.595       .  S
C347        C602   1.612   1_565  S
C347        C621   1.626   1_565  S
C347        C634   1.539   1_556  S
C347       C1293   1.687       .  S
O348       Ni354   1.882       .  S
O348        C369   1.267       .  A
O349       Ni372   1.932   1_556  S
O349        C358   1.286       .  A
O350       Ni354   1.902   1_655  S
O350       Ni372   1.949   1_565  S
O350       Ni366   1.909   1_554  S
O350        H373   0.965       .  S
C351        O368   1.290       .  A
C351        O360   1.268   1_565  A
C351       C2317   1.468   1_655  S
O352       Ni371   1.889       .  S
O352        C358   1.261       .  A
O353       Ni371   1.911       .  S
O353        C355   1.269   1_545  A
Ni354       O357   1.880   1_565  S
Ni354       O359   1.891       .  S
C355        O365   1.279       .  A
C355       C2445   1.508       .  S
O356       Ni372   1.917       .  S
O356        C362   1.253   1_655  A
O357        C362   1.262       .  A
C358        C570   1.472       .  S
O359        C361   1.264   1_564  A
O360       Ni371   1.878       .  S
C361        O367   1.308   1_556  A
C361        C618   1.513       .  S
C362        C586   1.499   1_455  S
H363        O364   0.963   1_455  S
O364       Ni372   1.842   1_556  S
O364       Ni366   1.881   1_545  S
O364       Ni371   1.866       .  S
O365       Ni366   1.966       .  S
Ni366       O370   1.944       .  S
Ni366       O368   1.937       .  S
O367       Ni372   2.017   1_455  S
C369        O370   1.285   1_454  A
C369       C1741   1.489       .  S
C374        C538   1.606   1_565  S
C374        C554   1.577   1_655  S
C374        C589   1.628       .  S
C374        C909   1.602       .  S
C375        C506   1.614   1_556  S
C375        C522   1.619       .  S
C375        C573   1.595       .  S
C375       C1949   1.647       .  S
O376       Ni382   1.854       .  S
O376        C397   1.244       .  A
O377       Ni400   1.960       .  S
O377        C386   1.280       .  A
O378       Ni382   1.884       .  S
O378       Ni400   1.892   1_556  S
O378       Ni394   1.921       .  S
O378        H401   0.965       .  S
C379        O396   1.295   1_554  A
C379        O388   1.280       .  A
C379       C2093   1.488       .  S
O380       Ni399   1.874       .  S
O380        C386   1.248       .  A
O381       Ni399   1.871       .  S
O381        C383   1.255       .  A
Ni382       O385   1.875       .  S
Ni382       O387   1.877       .  S
C383        O393   1.274   1_554  A
C383       C1725   1.480   1_554  S
O384       Ni400   1.983       .  S
O384        C390   1.303   1_554  A
O385        C390   1.264       .  A
C386        C490   1.475       .  S
O387        C389   1.259       .  A
O388       Ni399   1.906       .  S
C389        O395   1.269   1_556  A
C389        C605   1.529       .  S
C390        C525   1.477       .  S
H391        O392   0.961       .  S
O392       Ni400   1.911       .  S
O392       Ni394   1.901   1_554  S
O392       Ni399   1.863       .  S
O393       Ni394   1.929       .  S
Ni394       O398   1.966       .  S
Ni394       O396   1.958       .  S
O395       Ni400   1.971       .  S
C397        O398   1.281       .  A
C397       C2253   1.474       .  S
O402       Ni408   1.882       .  S
O402        C423   1.256       .  A
O403       Ni426   1.901       .  S
O403        C412   1.276   1_545  A
O404       Ni408   1.855   1_565  S
O404       Ni426   1.866   1_565  S
O404       Ni420   1.872       .  S
O404        H427   0.965       .  S
C405        O422   1.262       .  A
C405        O414   1.259       .  A
C405        C733   1.479       .  S
O406       Ni425   1.847       .  S
O406        C412   1.257       .  A
O407       Ni425   1.883       .  S
O407        C409   1.254       .  A
Ni408       O411   1.851       .  S
Ni408       O413   1.870       .  S
C409        O419   1.294       .  A
C409       C1645   1.501       .  S
O410       Ni426   1.932       .  S
O410        C416   1.293       .  A
O411        C416   1.279       .  A
C412        C637   1.411       .  S
O413        C415   1.241       .  A
O414       Ni425   1.877       .  S
C415        O421   1.273       .  A
C415        C474   1.504       .  S
C416        C557   1.437   1_545  S
H417        O418   0.967   1_545  S
O418       Ni426   1.871   1_565  S
O418       Ni420   1.904       .  S
O418       Ni425   1.883       .  S
O419       Ni420   2.002       .  S
Ni420       O424   1.879       .  S
Ni420       O422   1.899       .  S
O421       Ni426   1.987       .  S
C423        O424   1.270   1_545  A
C423       C1818   1.454       .  S
O428       Ni434   1.877       .  S
O428        C449   1.257       .  A
O429       Ni452   1.946       .  S
O429        C438   1.283       .  A
O430       Ni434   1.872       .  S
O430       Ni452   1.890   1_455  S
O430       Ni446   1.932       .  S
O430        H453   0.958       .  S
C431        O448   1.304       .  A
C431        O440   1.280       .  A
C431        C509   1.507       .  S
O432       Ni451   1.876       .  S
O432        C438   1.252       .  A
O433       Ni451   1.869       .  S
O433        C435   1.251       .  A
Ni434       O437   1.887       .  S
Ni434       O439   1.878       .  S
C435        O445   1.271   1_655  A
C435        C541   1.511       .  S
O436       Ni452   1.980       .  S
O436        C442   1.302   1_655  A
O437        C442   1.276       .  A
C438       C1069   1.477       .  S
O439        C441   1.255   1_455  A
O440       Ni451   1.889       .  S
C441        O447   1.267       .  A
C441        C701   1.520       .  S
C442        C653   1.482       .  S
H443        O444   0.951       .  S
O444       Ni452   1.919       .  S
O444       Ni446   1.861   1_655  S
O444       Ni451   1.860       .  S
O445       Ni446   1.972       .  S
Ni446       O450   1.935       .  S
Ni446       O448   1.980   1_455  S
O447       Ni452   1.973       .  S
C449        O450   1.277       .  A
C449        C458   1.498       .  S
C454        C461   1.614       .  S
C454        C477   1.598       .  S
C454        C493   1.600       .  S
C454        C794   1.640       .  S
C455        C717   1.623       .  S
C455       C1082   1.606       .  S
C455       C2109   1.642       .  S
C455       C2493   1.642       .  S
C456       C1213   1.643       .  S
C456       C1549   1.698       .  S
C456       C2157   1.658       .  S
C456       C2429   1.702       .  S
C457        C458   1.423       .  A
C457        C462   1.423       .  A
C457        H464   1.080       .  S
C458        C459   1.400       .  A
C459        C466   1.525       .  S
C459        C460   1.394       .  A
C460        C461   1.438       .  A
C460        H465   1.076       .  S
C461        C462   1.431       .  A
C462        C463   1.523       .  S
C463        F467   1.385       .  S
C463        F468   1.376       .  S
C463        F469   1.373       .  S
C466        F470   1.383       .  S
C466        F471   1.377       .  S
C466        F472   1.385       .  S
C473        C474   1.411       .  A
C473        C478   1.423       .  A
C473        H480   1.084       .  S
C474        C475   1.432       .  A
C475        C482   1.535       .  S
C475        C476   1.397       .  A
C476        C477   1.415       .  A
C476        H481   1.068       .  S
C477        C478   1.423       .  A
C478        C479   1.507       .  S
C479        F483   1.383       .  S
C479        F484   1.378       .  S
C479        F485   1.380       .  S
C482        F486   1.383       .  S
C482        F487   1.382       .  S
C482        F488   1.386       .  S
C489        C490   1.410       .  A
C489        C494   1.416       .  A
C489        H496   1.085       .  S
C490        C491   1.430       .  A
C491        C498   1.521       .  S
C491        C492   1.405       .  A
C492        C493   1.418       .  A
C492        H497   1.079       .  S
C493        C494   1.419       .  A
C494        C495   1.517       .  S
C495        F499   1.384       .  S
C495        F500   1.380       .  S
C495        F501   1.386       .  S
C498        F502   1.381       .  S
C498        F503   1.380       .  S
C498        F504   1.377       .  S
C505        C506   1.423       .  A
C505        C510   1.420       .  A
C505        H512   1.078       .  S
C506        C507   1.420       .  A
C507        C514   1.526       .  S
C507        C508   1.409       .  A
C508        C509   1.419       .  A
C508        H513   1.083       .  S
C509        C510   1.424       .  A
C510        C511   1.520   1_655  S
C511        F515   1.385       .  S
C511        F516   1.382       .  S
C511        F517   1.381       .  S
C514        F518   1.381       .  S
C514        F519   1.383       .  S
C514        F520   1.387       .  S
C521        C522   1.414   1_455  A
C521        C526   1.421       .  A
C521        H528   1.075       .  S
C522        C523   1.477   1_656  A
C523        C530   1.524   1_455  S
C523        C524   1.399       .  A
C524        C525   1.362   1_554  A
C524        H529   1.089       .  S
C525        C526   1.420       .  A
C526        C527   1.515       .  S
C527        F531   1.384       .  S
C527        F532   1.380       .  S
C527        F533   1.379   1_556  S
C530        F534   1.373       .  S
C530        F535   1.349       .  S
C530        F536   1.382   1_655  S
C537        C538   1.430       .  A
C537        C542   1.407   1_655  A
C537        H544   1.073   1_655  S
C538        C539   1.415       .  A
C539        C546   1.515       .  S
C539        C540   1.409       .  A
C540        C541   1.417       .  A
C540        H545   1.080       .  S
C541        C542   1.416   1_655  A
C542        C543   1.513       .  S
C543        F547   1.385       .  S
C543        F548   1.377       .  S
C543        F549   1.374       .  S
C546        F550   1.382       .  S
C546        F551   1.372       .  S
C546        F552   1.380       .  S
C553        C554   1.443   1_545  A
C553        C558   1.377       .  A
C553        H560   1.076       .  S
C554        C555   1.439       .  A
C555        C562   1.525       .  S
C555        C556   1.399       .  A
C556        C557   1.401       .  A
C556        H561   1.087       .  S
C557        C558   1.383   1_565  A
C558        C559   1.525       .  S
C559        F563   1.383       .  S
C559        F564   1.383       .  S
C559        F565   1.382       .  S
C562        F566   1.362   1_455  S
C562        F567   1.384       .  S
C562        F568   1.386       .  S
C569        C570   1.391       .  A
C569        C574   1.396       .  A
C569        H576   1.085       .  S
C570        C571   1.421       .  A
C571        C578   1.515   1_556  S
C571        C572   1.420       .  A
C572        C573   1.415       .  A
C572        H577   1.067       .  S
C573        C574   1.431       .  A
C574        C575   1.513       .  S
C575        F579   1.382       .  S
C575        F580   1.375       .  S
C575        F581   1.386       .  S
C578        F582   1.380       .  S
C578        F583   1.382   1_554  S
C578        F584   1.384       .  S
C585        C586   1.400   1_565  A
C585        C590   1.408       .  A
C585        H592   1.080   1_655  S
C586        C587   1.417       .  A
C587        C594   1.515       .  S
C587        C588   1.414       .  A
C588        C589   1.412   1_545  A
C588        H593   1.064       .  S
C589        C590   1.452       .  A
C590        C591   1.513       .  S
C591        F595   1.383       .  S
C591        F596   1.359       .  S
C591        F597   1.385   1_655  S
C594        F598   1.367       .  S
C594        F599   1.380       .  S
C594        F600   1.380       .  S
C601        C602   1.413       .  A
C601        C606   1.422       .  A
C601        H608   1.071       .  S
C602        C603   1.438       .  A
C603        C610   1.516       .  S
C603        C604   1.413       .  A
C604        C605   1.411       .  A
C604        H609   1.083       .  S
C605        C606   1.428       .  A
C606        C607   1.509   1_556  S
C607        F611   1.385       .  S
C607        F612   1.382       .  S
C607        F613   1.376       .  S
C610        F614   1.383       .  S
C610        F615   1.379       .  S
C610        F616   1.378       .  S
C617        C618   1.363       .  A
C617        C622   1.401       .  A
C617        H624   1.085       .  S
C618        C619   1.438   1_545  A
C619        C626   1.499       .  S
C619        C620   1.429       .  A
C620        C621   1.408   1_565  A
C620        H625   1.083       .  S
C621        C622   1.492       .  A
C622        C623   1.540   1_556  S
C623        F627   1.382       .  S
C623        F628   1.357       .  S
C623        F629   1.380       .  S
C626        F630   1.372       .  S
C626        F631   1.383       .  S
C626        F632   1.383       .  S
C633        C634   1.404       .  A
C633        C638   1.402   1_565  A
C633        H640   1.080       .  S
C634        C635   1.447       .  A
C635        C642   1.522       .  S
C635        C636   1.376       .  A
C636        C637   1.384       .  A
C636        H641   1.088       .  S
C637        C638   1.415   1_565  A
C638        C639   1.517       .  S
C639        F643   1.384       .  S
C639        F644   1.381   1_545  S
C639        F645   1.383       .  S
C642        F646   1.385       .  S
C642        F647   1.372   1_554  S
C642        F648   1.381       .  S
C649        C650   1.426       .  A
C649        C654   1.407       .  A
C649        H656   1.058       .  S
C650        C651   1.445       .  A
C651        C658   1.511       .  S
C651        C652   1.420       .  A
C652        C653   1.401       .  A
C652        H657   1.085       .  S
C653        C654   1.411       .  A
C654        C655   1.526       .  S
C655        F659   1.384       .  S
C655        F660   1.384       .  S
C655        F661   1.382       .  S
C658        F662   1.382   1_455  S
C658        F663   1.373       .  S
C658        F664   1.384       .  S
C665        C666   1.395   1_455  A
C665        C670   1.407       .  A
C665        H672   1.084       .  S
C666        C667   1.402       .  A
C667        C674   1.520       .  S
C667        C668   1.395       .  A
C668        C669   1.423   1_655  A
C668        H673   1.074       .  S
C669        C670   1.437       .  A
C670        C671   1.518       .  S
C671        F675   1.385       .  S
C671        F676   1.373       .  S
C671        F677   1.379       .  S
C674        F678   1.381       .  S
C674        F679   1.382       .  S
C674        F680   1.381       .  S
C681        C682   1.372   1_655  A
C681        C686   1.397       .  A
C681        H688   1.087       .  S
C682        C683   1.454       .  A
C683        C690   1.526       .  S
C683        C684   1.414       .  A
C684        C685   1.392       .  A
C684        H689   1.079       .  S
C685        C686   1.476   1_455  A
C686        C687   1.533       .  S
C687        F691   1.384       .  S
C687        F692   1.349       .  S
C687        F693   1.384       .  S
C690        F694   1.382       .  S
C690        F695   1.361       .  S
C690        F696   1.387       .  S
C697        C698   1.395   1_655  A
C697        C702   1.415       .  A
C697        H704   1.059       .  S
C698        C699   1.447       .  A
C699        C706   1.529       .  S
C699        C700   1.398       .  A
C700        C701   1.405   1_455  A
C700        H705   1.084       .  S
C701        C702   1.433       .  A
C702        C703   1.509       .  S
C703        F707   1.385       .  S
C703        F708   1.371       .  S
C703        F709   1.371       .  S
C706        F710   1.385       .  S
C706        F711   1.369       .  S
C706        F712   1.384       .  S
C713        C714   1.415       .  A
C713        C718   1.420       .  A
C713        H720   1.068       .  S
C714        C715   1.472       .  A
C715        C722   1.534       .  S
C715        C716   1.438       .  A
C716        C717   1.415       .  A
C716        H721   1.076       .  S
C717        C718   1.441       .  A
C718        C719   1.520       .  S
C719        F723   1.383       .  S
C719        F724   1.358       .  S
C719        F725   1.384       .  S
C722        F726   1.375       .  S
C722        F727   1.376   1_545  S
C722        F728   1.386       .  S
C729        C730   1.429   1_565  A
C729        C734   1.396       .  A
C729        H736   1.070       .  S
C730        C731   1.417       .  A
C731        C738   1.513       .  S
C731        C732   1.410       .  A
C732        C733   1.413   1_545  A
C732        H737   1.084       .  S
C733        C734   1.412       .  A
C734        C735   1.526       .  S
C735        F739   1.386       .  S
C735        F740   1.382       .  S
C735        F741   1.383       .  S
C738        F742   1.384       .  S
C738        F743   1.381       .  S
C738        F744   1.383       .  S
C745        C746   1.394       .  A
C745        C750   1.407       .  A
C745        H752   1.084   1_545  S
C746        C747   1.415       .  A
C747        C754   1.511       .  S
C747        C748   1.429       .  A
C748        C749   1.420       .  A
C748        H753   1.064       .  S
C749        C750   1.464       .  A
C750        C751   1.540   1_545  S
C751        F755   1.382       .  S
C751        F756   1.372       .  S
C751        F757   1.385       .  S
C754        F758   1.379       .  S
C754        F759   1.383       .  S
C754        F760   1.382       .  S
C761        C762   1.405       .  A
C761        C766   1.417       .  A
C761        H768   1.079       .  S
C762        C763   1.449       .  A
C763        C770   1.535       .  S
C763        C764   1.400       .  A
C764        C765   1.403       .  A
C764        H769   1.084       .  S
C765        C766   1.419       .  A
C766        C767   1.522       .  S
C767        F771   1.383       .  S
C767        F772   1.377       .  S
C767        F773   1.370       .  S
C770        F774   1.385       .  S
C770        F775   1.372       .  S
C770        F776   1.380       .  S
C777        C778   1.411       .  A
C777        C782   1.411       .  A
C777        H784   1.069       .  S
C778        C779   1.439       .  A
C779        C786   1.529       .  S
C779        C780   1.421       .  A
C780        C781   1.420       .  A
C780        H785   1.064       .  S
C781        C782   1.457       .  A
C782        C783   1.548       .  S
C783        F787   1.387       .  S
C783        F788   1.373       .  S
C783        F789   1.375       .  S
C786        F790   1.386       .  S
C786        F791   1.374       .  S
C786        F792   1.378       .  S
C793        C794   1.435       .  A
C793        C798   1.423       .  A
C793        H800   1.071       .  S
C794        C795   1.463       .  A
C795        C802   1.535       .  S
C795        C796   1.434       .  A
C796        C797   1.414       .  A
C796        H801   1.076       .  S
C797        C798   1.422       .  A
C798        C799   1.518       .  S
C799        F803   1.386       .  S
C799        F804   1.377       .  S
C799        F805   1.379       .  S
C802        F806   1.378       .  S
C802        F807   1.374       .  S
C802        F808   1.386       .  S
C809        C810   1.422       .  A
C809        C814   1.411       .  A
C809        H816   1.070       .  S
C810        C811   1.470       .  A
C811        C818   1.528       .  S
C811        C812   1.443       .  A
C812        C813   1.422       .  A
C812        H817   1.078       .  S
C813        C814   1.437       .  A
C814        C815   1.525       .  S
C815        F819   1.385       .  S
C815        F820   1.376       .  S
C815        F821   1.362       .  S
C818        F822   1.386       .  S
C818        F823   1.375       .  S
C818        F824   1.378       .  S
C825        C826   1.394       .  A
C825        C830   1.392       .  A
C825        H832   1.086       .  S
C826        C827   1.403       .  A
C827        C834   1.511       .  S
C827        C828   1.414       .  A
C828        C829   1.416       .  A
C828        H833   1.062       .  S
C829        C830   1.452       .  A
C830        C831   1.534       .  S
C831        F835   1.384       .  S
C831        F836   1.372       .  S
C831        F837   1.385       .  S
C834        F838   1.382       .  S
C834        F839   1.382       .  S
C834        F840   1.383       .  S
C841        C842   1.369       .  A
C841        C846   1.409       .  A
C841        H848   1.088       .  S
C842        C843   1.419       .  A
C843        C850   1.507       .  S
C843        C844   1.403       .  A
C844        C845   1.398       .  A
C844        H849   1.070       .  S
C845        C846   1.481       .  A
C846        C847   1.531       .  S
C847        F851   1.384       .  S
C847        F852   1.351       .  S
C847        F853   1.384       .  S
C850        F854   1.371       .  S
C850        F855   1.383       .  S
C850        F856   1.377       .  S
C857        C858   1.418       .  A
C857        C862   1.431       .  A
C857        H864   1.076       .  S
C858        C859   1.455       .  A
C859        C866   1.525       .  S
C859        C860   1.436       .  A
C860        C861   1.419       .  A
C860        H865   1.077       .  S
C861        C862   1.453       .  A
C862        C863   1.522       .  S
C863        F867   1.384       .  S
C863        F868   1.383       .  S
C863        F869   1.365       .  S
C866        F870   1.363       .  S
C866        F871   1.385       .  S
C866        F872   1.384       .  S
C873        C874   1.398       .  A
C873        C878   1.414       .  A
C873        H880   1.083       .  S
C874        C875   1.449       .  A
C875        C882   1.520       .  S
C875        C876   1.393       .  A
C876        C877   1.384       .  A
C876        H881   1.084       .  S
C877        C878   1.442       .  A
C878        C879   1.525       .  S
C879        F883   1.385       .  S
C879        F884   1.383       .  S
C879        F885   1.380   1_655  S
C882        F886   1.383       .  S
C882        F887   1.369       .  S
C882        F888   1.378       .  S
C889        C890   1.403       .  A
C889        C894   1.404       .  A
C889        H896   1.083       .  S
C890        C891   1.463       .  A
C891        C898   1.533       .  S
C891        C892   1.385       .  A
C892        C893   1.379       .  A
C892        H897   1.086       .  S
C893        C894   1.422       .  A
C894        C895   1.519       .  S
C895        F899   1.385       .  S
C895        F900   1.382       .  S
C895        F901   1.383       .  S
C898        F902   1.379       .  S
C898        F903   1.353       .  S
C898        F904   1.386       .  S
C905        C906   1.415       .  A
C905        C910   1.432       .  A
C905        H912   1.081       .  S
C906        C907   1.440       .  A
C907        C914   1.525       .  S
C907        C908   1.413       .  A
C908        C909   1.417       .  A
C908        H913   1.078       .  S
C909        C910   1.458       .  A
C910        C911   1.525   1_565  S
C911        F915   1.385   1_545  S
C911        F916   1.379       .  S
C911        F917   1.373   1_655  S
C914        F918   1.365       .  S
C914        F919   1.379       .  S
C914        F920   1.377       .  S
C921        C922   1.441       .  A
C921        C926   1.448       .  A
C921        H928   1.066       .  S
C922        C923   1.465       .  A
C923        C930   1.543       .  S
C923        C924   1.431       .  A
C924        C925   1.417       .  A
C924        H929   1.063       .  S
C925        C926   1.445       .  A
C926        C927   1.526   1_655  S
C927        F931   1.377       .  S
C927        F932   1.375       .  S
C927        F933   1.375       .  S
C930        F934   1.385       .  S
C930        F935   1.376       .  S
C930        F936   1.385       .  S
C937        C938   1.421       .  A
C937        C942   1.443       .  A
C937        H944   1.079   1_565  S
C938        C939   1.449       .  A
C939        C946   1.529       .  S
C939        C940   1.421       .  A
C940        C941   1.407       .  A
C940        H945   1.043       .  S
C941        C942   1.476       .  A
C942        C943   1.532       .  S
C943        F947   1.387   1_565  S
C943        F948   1.353       .  S
C943        F949   1.383   1_565  S
C946        F950   1.364       .  S
C946        F951   1.374       .  S
C946        F952   1.379       .  S
C953        C954   1.417       .  A
C953        C958   1.423       .  A
C953        H960   1.061       .  S
C954        C955   1.462       .  A
C955        C962   1.516       .  S
C955        C956   1.441       .  A
C956        C957   1.408       .  A
C956        H961   1.076       .  S
C957        C958   1.462       .  A
C958        C959   1.543       .  S
C959        F963   1.387       .  S
C959        F964   1.375       .  S
C959        F965   1.378       .  S
C962        F966   1.372       .  S
C962        F967   1.371       .  S
C962        F968   1.384       .  S
C969        C970   1.407       .  A
C969        C974   1.413       .  A
C969        H976   1.086       .  S
C970        C971   1.390       .  A
C971        C978   1.524       .  S
C971        C972   1.386       .  A
C972        C973   1.444       .  A
C972        H977   1.080       .  S
C973        C974   1.437       .  A
C974        C975   1.513       .  S
C975        F979   1.385       .  S
C975        F980   1.357       .  S
C975        F981   1.383       .  S
C978        F982   1.383       .  S
C978        F983   1.383       .  S
C978        F984   1.385       .  S
C985        C986   1.405       .  A
C985        C990   1.420       .  A
C985        H992   1.084       .  S
C986        C987   1.438       .  A
C987        C994   1.525       .  S
C987        C988   1.424       .  A
C988        C989   1.413       .  A
C988        H993   1.070       .  S
C989        C990   1.447       .  A
C990        C991   1.518       .  S
C991        F995   1.383       .  S
C991        F996   1.377       .  S
C991        F997   1.383       .  S
C994        F998   1.381       .  S
C994        F999   1.383       .  S
C994       F1000   1.382       .  S
C1001      C1002   1.434       .  A
C1001      C1006   1.389       .  A
C1001      H1008   1.070       .  S
C1002      C1003   1.431       .  A
C1003      C1010   1.519       .  S
C1003      C1004   1.412       .  A
C1004      C1005   1.405       .  A
C1004      H1009   1.085       .  S
C1005      C1006   1.398       .  A
C1006      C1007   1.526       .  S
C1007      F1011   1.385       .  S
C1007      F1012   1.383       .  S
C1007      F1013   1.383       .  S
C1010      F1014   1.382       .  S
C1010      F1015   1.372       .  S
C1010      F1016   1.384       .  S
C1017      C1018   1.424       .  A
C1017      C1022   1.421       .  A
C1017      H1024   1.074       .  S
C1018      C1019   1.419       .  A
C1019      C1026   1.513       .  S
C1019      C1020   1.410       .  A
C1020      C1021   1.414       .  A
C1020      H1025   1.085       .  S
C1021      C1022   1.418       .  A
C1022      C1023   1.517       .  S
C1023      F1027   1.383       .  S
C1023      F1028   1.383       .  S
C1023      F1029   1.382       .  S
C1026      F1030   1.383       .  S
C1026      F1031   1.380       .  S
C1026      F1032   1.386       .  S
C1033      C1034   1.372   1_545  A
C1033      C1038   1.371       .  A
C1033      H1040   1.085       .  S
C1034      C1035   1.423       .  A
C1035      C1042   1.513       .  S
C1035      C1036   1.414       .  A
C1036      C1037   1.415       .  A
C1036      H1041   1.080       .  S
C1037      C1038   1.466   1_565  A
C1038      C1039   1.545       .  S
C1039      F1043   1.381       .  S
C1039      F1044   1.364       .  S
C1039      F1045   1.380       .  S
C1042      F1046   1.372       .  S
C1042      F1047   1.383       .  S
C1042      F1048   1.380       .  S
C1049      C1050   1.415       .  A
C1049      C1054   1.417       .  A
C1049      H1056   1.085       .  S
C1050      C1051   1.399       .  A
C1051      C1058   1.528       .  S
C1051      C1052   1.390       .  A
C1052      C1053   1.436       .  A
C1052      H1057   1.071       .  S
C1053      C1054   1.441       .  A
C1054      C1055   1.523       .  S
C1055      F1059   1.385       .  S
C1055      F1060   1.366       .  S
C1055      F1061   1.383       .  S
C1058      F1062   1.384       .  S
C1058      F1063   1.384       .  S
C1058      F1064   1.383       .  S
C1065      C1066   1.417       .  A
C1065      C1070   1.394       .  A
C1065      H1072   1.073       .  S
C1066      C1067   1.419       .  A
C1067      C1074   1.513       .  S
C1067      C1068   1.411       .  A
C1068      C1069   1.412       .  A
C1068      H1073   1.083       .  S
C1069      C1070   1.416       .  A
C1070      C1071   1.514       .  S
C1071      F1075   1.386       .  S
C1071      F1076   1.370       .  S
C1071      F1077   1.377       .  S
C1074      F1078   1.382       .  S
C1074      F1079   1.372       .  S
C1074      F1080   1.380       .  S
C1081      C1082   1.407       .  A
C1081      C1086   1.438       .  A
C1081      H1088   1.078       .  S
C1082      C1083   1.442       .  A
C1083      C1090   1.542       .  S
C1083      C1084   1.410       .  A
C1084      C1085   1.419       .  A
C1084      H1089   1.077       .  S
C1085      C1086   1.461       .  A
C1086      C1087   1.529       .  S
C1087      F1091   1.385       .  S
C1087      F1092   1.379       .  S
C1087      F1093   1.373       .  S
C1090      F1094   1.383       .  S
C1090      F1095   1.371       .  S
C1090      F1096   1.382       .  S
C1097      C1098   1.413       .  A
C1097      C1102   1.402       .  A
C1097      H1104   1.058       .  S
C1098      C1099   1.439       .  A
C1099      C1106   1.518       .  S
C1099      C1100   1.395       .  A
C1100      C1101   1.395       .  A
C1100      H1105   1.086       .  S
C1101      C1102   1.404       .  A
C1102      C1103   1.517       .  S
C1103      F1107   1.381       .  S
C1103      F1108   1.378       .  S
C1103      F1109   1.383       .  S
C1106      F1110   1.383       .  S
C1106      F1111   1.373       .  S
C1106      F1112   1.384       .  S
C1113      C1114   1.398       .  A
C1113      C1118   1.393       .  A
C1113      H1120   1.086       .  S
C1114      C1115   1.418       .  A
C1115      C1122   1.526       .  S
C1115      C1116   1.397       .  A
C1116      C1117   1.406       .  A
C1116      H1121   1.070       .  S
C1117      C1118   1.430       .  A
C1118      C1119   1.510       .  S
C1119      F1123   1.384       .  S
C1119      F1124   1.382       .  S
C1119      F1125   1.376       .  S
C1122      F1126   1.382       .  S
C1122      F1127   1.382       .  S
C1122      F1128   1.383       .  S
C1129      C1130   1.368       .  A
C1129      C1134   1.398       .  A
C1129      H1136   1.088       .  S
C1130      C1131   1.427       .  A
C1131      C1138   1.504       .  S
C1131      C1132   1.417       .  A
C1132      C1133   1.404       .  A
C1132      H1137   1.079       .  S
C1133      C1134   1.476       .  A
C1134      C1135   1.530       .  S
C1135      F1139   1.379       .  S
C1135      F1140   1.359       .  S
C1135      F1141   1.382       .  S
C1138      F1142   1.373       .  S
C1138      F1143   1.383       .  S
C1138      F1144   1.381       .  S
C1145      C1146   1.368       .  A
C1145      C1150   1.385       .  A
C1145      H1152   1.088       .  S
C1146      C1147   1.433       .  A
C1147      C1154   1.524       .  S
C1147      C1148   1.400       .  A
C1148      C1149   1.400       .  A
C1148      H1153   1.076       .  S
C1149      C1150   1.468       .  A
C1150      C1151   1.527       .  S
C1151      F1155   1.379       .  S
C1151      F1156   1.360       .  S
C1151      F1157   1.379       .  S
C1154      F1158   1.379       .  S
C1154      F1159   1.381       .  S
C1154      F1160   1.386       .  S
C1161      C1162   1.418       .  A
C1161      C1166   1.436       .  A
C1161      H1168   1.083       .  S
C1162      C1163   1.430       .  A
C1163      C1170   1.532       .  S
C1163      C1164   1.398       .  A
C1164      C1165   1.417       .  A
C1164      H1169   1.070       .  S
C1165      C1166   1.435       .  A
C1166      C1167   1.513       .  S
C1167      F1171   1.383       .  S
C1167      F1172   1.384       .  S
C1167      F1173   1.379       .  S
C1170      F1174   1.384       .  S
C1170      F1175   1.384       .  S
C1170      F1176   1.386       .  S
C1177      C1178   1.449       .  A
C1177      C1182   1.398       .  A
C1177      H1184   1.063       .  S
C1178      C1179   1.444       .  A
C1179      C1186   1.506       .  S
C1179      C1180   1.418       .  A
C1180      C1181   1.405       .  A
C1180      H1185   1.086       .  S
C1181      C1182   1.389       .  A
C1182      C1183   1.525       .  S
C1183      F1187   1.385       .  S
C1183      F1188   1.381       .  S
C1183      F1189   1.383       .  S
C1186      F1190   1.383       .  S
C1186      F1191   1.351       .  S
C1186      F1192   1.385       .  S
C1193      C1194   1.404       .  A
C1193      C1198   1.402       .  A
C1193      H1200   1.083       .  S
C1194      C1195   1.425       .  A
C1195      C1202   1.511       .  S
C1195      C1196   1.387       .  A
C1196      C1197   1.399       .  A
C1196      H1201   1.085       .  S
C1197      C1198   1.416       .  A
C1198      C1199   1.502       .  S
C1199      F1203   1.383       .  S
C1199      F1204   1.382       .  S
C1199      F1205   1.383       .  S
C1202      F1206   1.381       .  S
C1202      F1207   1.373       .  S
C1202      F1208   1.384       .  S
C1209      C1210   1.451       .  A
C1209      C1214   1.430       .  A
C1209      H1216   1.059       .  S
C1210      C1211   1.458       .  A
C1211      C1218   1.518       .  S
C1211      C1212   1.458       .  A
C1212      C1213   1.439       .  A
C1212      H1217   1.084       .  S
C1213      C1214   1.447       .  A
C1214      C1215   1.539       .  S
C1215      F1219   1.386       .  S
C1215      F1220   1.372       .  S
C1215      F1221   1.370       .  S
C1218      F1222   1.383       .  S
C1218      F1223   1.377       .  S
C1218      F1224   1.379       .  S
C1225      C1226   1.449       .  A
C1225      C1230   1.418       .  A
C1225      H1232   1.054       .  S
C1226      C1227   1.417       .  A
C1227      C1234   1.504       .  S
C1227      C1228   1.425       .  A
C1228      C1229   1.418       .  A
C1228      H1233   1.083       .  S
C1229      C1230   1.405       .  A
C1230      C1231   1.526       .  S
C1231      F1235   1.384       .  S
C1231      F1236   1.383       .  S
C1231      F1237   1.384       .  S
C1234      F1238   1.376       .  S
C1234      F1239   1.379       .  S
C1234      F1240   1.385       .  S
C1241      C1242   1.414   1_556  A
C1241      C1246   1.419       .  A
C1241      H1248   1.080       .  S
C1242      C1243   1.402       .  A
C1243      C1250   1.513       .  S
C1243      C1244   1.426       .  A
C1244      C1245   1.438   1_554  A
C1244      H1249   1.059       .  S
C1245      C1246   1.444       .  A
C1246      C1247   1.524       .  S
C1247      F1251   1.384       .  S
C1247      F1252   1.371       .  S
C1247      F1253   1.384       .  S
C1250      F1254   1.379       .  S
C1250      F1255   1.377       .  S
C1250      F1256   1.383       .  S
C1257      C1258   1.442   1_545  A
C1257      C1262   1.383       .  A
C1257      H1264   1.076       .  S
C1258      C1259   1.429       .  A
C1259      C1266   1.514       .  S
C1259      C1260   1.432       .  A
C1260      C1261   1.416       .  A
C1260      H1265   1.082       .  S
C1261      C1262   1.391   1_565  A
C1262      C1263   1.529       .  S
C1263      F1267   1.385       .  S
C1263      F1268   1.382       .  S
C1263      F1269   1.383       .  S
C1266      F1270   1.379       .  S
C1266      F1271   1.379       .  S
C1266      F1272   1.385       .  S
C1273      C1274   1.438       .  A
C1273      C1278   1.425       .  A
C1273      H1280   1.076       .  S
C1274      C1275   1.431       .  A
C1275      C1282   1.508   1_565  S
C1275      C1276   1.425       .  A
C1276      C1277   1.413       .  A
C1276      H1281   1.083   1_565  S
C1277      C1278   1.424       .  A
C1278      C1279   1.539       .  S
C1279      F1283   1.384       .  S
C1279      F1284   1.380       .  S
C1279      F1285   1.379       .  S
C1282      F1286   1.372   1_545  S
C1282      F1287   1.377   1_545  S
C1282      F1288   1.381       .  S
C1289      C1290   1.412       .  A
C1289      C1294   1.441       .  A
C1289      H1296   1.071       .  S
C1290      C1291   1.448       .  A
C1291      C1298   1.522       .  S
C1291      C1292   1.451       .  A
C1292      C1293   1.444       .  A
C1292      H1297   1.078   1_565  S
C1293      C1294   1.488       .  A
C1294      C1295   1.547       .  S
C1295      F1299   1.390       .  S
C1295      F1300   1.382       .  S
C1295      F1301   1.359   1_556  S
C1298      F1302   1.381   1_565  S
C1298      F1303   1.373       .  S
C1298      F1304   1.386   1_565  S
C1305      C1306   1.430       .  A
C1305      C1310   1.455       .  A
C1305      H1312   1.078       .  S
C1306      C1307   1.459       .  A
C1307      C1314   1.517       .  S
C1307      C1308   1.455       .  A
C1308      C1309   1.428       .  A
C1308      H1313   1.078       .  S
C1309      C1310   1.471       .  A
C1310      C1311   1.538       .  S
C1311      F1315   1.387       .  S
C1311      F1316   1.383       .  S
C1311      F1317   1.367       .  S
C1314      F1318   1.385       .  S
C1314      F1319   1.361       .  S
C1314      F1320   1.384       .  S
C1321      C1322   1.426       .  A
C1321      C1326   1.459       .  A
C1321      H1328   1.071       .  S
C1322      C1323   1.458       .  A
C1323      C1330   1.525       .  S
C1323      C1324   1.440       .  A
C1324      C1325   1.417       .  A
C1324      H1329   1.062       .  S
C1325      C1326   1.463       .  A
C1326      C1327   1.527       .  S
C1327      F1331   1.380       .  S
C1327      F1332   1.376       .  S
C1327      F1333   1.375       .  S
C1330      F1334   1.386       .  S
C1330      F1335   1.362       .  S
C1330      F1336   1.377       .  S
C1337      C1338   1.410       .  A
C1337      C1342   1.415       .  A
C1337      H1344   1.085       .  S
C1338      C1339   1.387       .  A
C1339      C1346   1.524       .  S
C1339      C1340   1.390       .  A
C1340      C1341   1.439       .  A
C1340      H1345   1.069       .  S
C1341      C1342   1.443       .  A
C1342      C1343   1.528       .  S
C1343      F1347   1.385       .  S
C1343      F1348   1.381       .  S
C1343      F1349   1.368       .  S
C1346      F1350   1.383       .  S
C1346      F1351   1.384       .  S
C1346      F1352   1.381       .  S
C1353      C1354   1.418       .  A
C1353      C1358   1.418       .  A
C1353      H1360   1.083       .  S
C1354      C1355   1.423       .  A
C1355      C1362   1.526       .  S
C1355      C1356   1.400       .  A
C1356      C1357   1.423       .  A
C1356      H1361   1.075       .  S
C1357      C1358   1.408       .  A
C1358      C1359   1.511       .  S
C1359      F1363   1.370       .  S
C1359      F1364   1.382       .  S
C1359      F1365   1.382       .  S
C1362      F1366   1.380       .  S
C1362      F1367   1.382       .  S
C1362      F1368   1.385       .  S
C1369      C1370   1.428       .  A
C1369      C1374   1.427       .  A
C1369      H1376   1.082       .  S
C1370      C1371   1.413       .  A
C1371      C1378   1.524       .  S
C1371      C1372   1.417       .  A
C1372      C1373   1.437       .  A
C1372      H1377   1.076       .  S
C1373      C1374   1.412       .  A
C1374      C1375   1.517       .  S
C1375      F1379   1.384       .  S
C1375      F1380   1.380       .  S
C1375      F1381   1.383       .  S
C1378      F1382   1.379       .  S
C1378      F1383   1.377       .  S
C1378      F1384   1.384       .  S
C1385      C1386   1.408       .  A
C1385      C1390   1.410       .  A
C1385      H1392   1.081       .  S
C1386      C1387   1.473       .  A
C1387      C1394   1.518       .  S
C1387      C1388   1.385       .  A
C1388      C1389   1.350       .  A
C1388      H1393   1.090       .  S
C1389      C1390   1.422       .  A
C1390      C1391   1.509       .  S
C1391      F1395   1.385       .  S
C1391      F1396   1.382       .  S
C1391      F1397   1.382       .  S
C1394      F1398   1.378       .  S
C1394      F1399   1.357       .  S
C1394      F1400   1.370       .  S
C1401      C1402   1.428       .  A
C1401      C1406   1.447       .  A
C1401      H1408   1.081       .  S
C1402      C1403   1.461       .  A
C1403      C1410   1.552       .  S
C1403      C1404   1.429       .  A
C1404      C1405   1.431       .  A
C1404      H1409   1.064       .  S
C1405      C1406   1.445       .  A
C1406      C1407   1.509       .  S
C1407      F1411   1.378       .  S
C1407      F1412   1.374       .  S
C1407      F1413   1.385       .  S
C1410      F1414   1.387       .  S
C1410      F1415   1.354       .  S
C1410      F1416   1.385       .  S
C1417      C1418   1.412   1_655  A
C1417      C1422   1.421       .  A
C1417      H1424   1.085       .  S
C1418      C1419   1.388       .  A
C1419      C1426   1.530       .  S
C1419      C1420   1.372       .  A
C1420      C1421   1.441   1_455  A
C1420      H1425   1.078       .  S
C1421      C1422   1.434       .  A
C1422      C1423   1.521       .  S
C1423      F1427   1.383       .  S
C1423      F1428   1.372       .  S
C1423      F1429   1.384       .  S
C1426      F1430   1.384       .  S
C1426      F1431   1.383       .  S
C1426      F1432   1.385       .  S
C1433      C1434   1.404       .  A
C1433      C1438   1.416       .  A
C1433      H1440   1.084       .  S
C1434      C1435   1.412       .  A
C1435      C1442   1.519       .  S
C1435      C1436   1.388       .  A
C1436      C1437   1.424       .  A
C1436      H1441   1.081       .  S
C1437      C1438   1.426       .  A
C1438      C1439   1.508       .  S
C1439      F1443   1.385       .  S
C1439      F1444   1.376       .  S
C1439      F1445   1.379       .  S
C1442      F1446   1.382       .  S
C1442      F1447   1.382       .  S
C1442      F1448   1.385       .  S
C1449      C1450   1.402       .  A
C1449      C1454   1.399       .  A
C1449      H1456   1.084       .  S
C1450      C1451   1.431       .  A
C1451      C1458   1.497       .  S
C1451      C1452   1.432       .  A
C1452      C1453   1.405       .  A
C1452      H1457   1.067       .  S
C1453      C1454   1.429       .  A
C1454      C1455   1.502       .  S
C1455      F1459   1.378       .  S
C1455      F1460   1.383       .  S
C1455      F1461   1.385       .  S
C1458      F1462   1.380       .  S
C1458      F1463   1.379       .  S
C1458      F1464   1.384       .  S
C1465      C1466   1.369       .  A
C1465      C1470   1.390       .  A
C1465      H1472   1.087       .  S
C1466      C1467   1.420       .  A
C1467      C1474   1.510       .  S
C1467      C1468   1.411       .  A
C1468      C1469   1.409       .  A
C1468      H1473   1.083       .  S
C1469      C1470   1.477       .  A
C1470      C1471   1.541       .  S
C1471      F1475   1.382       .  S
C1471      F1476   1.386       .  S
C1471      F1477   1.366       .  S
C1474      F1478   1.380       .  S
C1474      F1479   1.382       .  S
C1474      F1480   1.383       .  S
C1481      C1482   1.402       .  A
C1481      C1486   1.407       .  A
C1481      H1488   1.085       .  S
C1482      C1483   1.432       .  A
C1483      C1490   1.527       .  S
C1483      C1484   1.401       .  A
C1484      C1485   1.409       .  A
C1484      H1489   1.079       .  S
C1485      C1486   1.421       .  A
C1486      C1487   1.516       .  S
C1487      F1491   1.385       .  S
C1487      F1492   1.377       .  S
C1487      F1493   1.381       .  S
C1490      F1494   1.381       .  S
C1490      F1495   1.384       .  S
C1490      F1496   1.385       .  S
C1497      C1498   1.385       .  A
C1497      C1502   1.413       .  A
C1497      H1504   1.083       .  S
C1498      C1499   1.438       .  A
C1499      C1506   1.507       .  S
C1499      C1500   1.415       .  A
C1500      C1501   1.389       .  A
C1500      H1505   1.075       .  S
C1501      C1502   1.469       .  A
C1502      C1503   1.541       .  S
C1503      F1507   1.385       .  S
C1503      F1508   1.368       .  S
C1503      F1509   1.380       .  S
C1506      F1510   1.364       .  S
C1506      F1511   1.380       .  S
C1506      F1512   1.385       .  S
C1513      C1514   1.404       .  A
C1513      C1518   1.429       .  A
C1513      H1520   1.084       .  S
C1514      C1515   1.439       .  A
C1515      C1522   1.530       .  S
C1515      C1516   1.421       .  A
C1516      C1517   1.413       .  A
C1516      H1521   1.068       .  S
C1517      C1518   1.459       .  A
C1518      C1519   1.515       .  S
C1519      F1523   1.380       .  S
C1519      F1524   1.384       .  S
C1519      F1525   1.375       .  S
C1522      F1526   1.383       .  S
C1522      F1527   1.381       .  S
C1522      F1528   1.379       .  S
C1529      C1530   1.412       .  A
C1529      C1534   1.423       .  A
C1529      H1536   1.077       .  S
C1530      C1531   1.477       .  A
C1531      C1538   1.539       .  S
C1531      C1532   1.394       .  A
C1532      C1533   1.372       .  A
C1532      H1537   1.087       .  S
C1533      C1534   1.427       .  A
C1534      C1535   1.518       .  S
C1535      F1539   1.384       .  S
C1535      F1540   1.382       .  S
C1535      F1541   1.382       .  S
C1538      F1542   1.384       .  S
C1538      F1543   1.347       .  S
C1538      F1544   1.384       .  S
C1545      C1546   1.430       .  A
C1545      C1550   1.461       .  A
C1545      H1552   1.076       .  S
C1546      C1547   1.478       .  A
C1547      C1554   1.531       .  S
C1547      C1548   1.467       .  A
C1548      C1549   1.429       .  A
C1548      H1553   1.079       .  S
C1549      C1550   1.471       .  A
C1550      C1551   1.529       .  S
C1551      F1555   1.375       .  S
C1551      F1556   1.366       .  S
C1551      F1557   1.385       .  S
C1554      F1558   1.385       .  S
C1554      F1559   1.359       .  S
C1554      F1560   1.385       .  S
C1561      C1562   1.408       .  A
C1561      C1566   1.411       .  A
C1561      H1568   1.054       .  S
C1562      C1563   1.442       .  A
C1563      C1570   1.512       .  S
C1563      C1564   1.443       .  A
C1564      C1565   1.419       .  A
C1564      H1569   1.083       .  S
C1565      C1566   1.438       .  A
C1566      C1567   1.531       .  S
C1567      F1571   1.386       .  S
C1567      F1572   1.384       .  S
C1567      F1573   1.382       .  S
C1570      F1574   1.384       .  S
C1570      F1575   1.375       .  S
C1570      F1576   1.383       .  S
C1577      C1578   1.413       .  A
C1577      C1582   1.440       .  A
C1577      H1584   1.062       .  S
C1578      C1579   1.443       .  A
C1579      C1586   1.521       .  S
C1579      C1580   1.415       .  A
C1580      C1581   1.412       .  A
C1580      H1585   1.080       .  S
C1581      C1582   1.434       .  A
C1582      C1583   1.513       .  S
C1583      F1587   1.384       .  S
C1583      F1588   1.381       .  S
C1583      F1589   1.378       .  S
C1586      F1590   1.384       .  S
C1586      F1591   1.373       .  S
C1586      F1592   1.384       .  S
C1593      C1594   1.425       .  A
C1593      C1598   1.450       .  A
C1593      H1600   1.080       .  S
C1594      C1595   1.456       .  A
C1595      C1602   1.533       .  S
C1595      C1596   1.440       .  A
C1596      C1597   1.435       .  A
C1596      H1601   1.073       .  S
C1597      C1598   1.458       .  A
C1598      C1599   1.527       .  S
C1599      F1603   1.385       .  S
C1599      F1604   1.374       .  S
C1599      F1605   1.378   1_455  S
C1602      F1606   1.375       .  S
C1602      F1607   1.371       .  S
C1602      F1608   1.386       .  S
C1609      C1610   1.393       .  A
C1609      C1614   1.408       .  A
C1609      H1616   1.076       .  S
C1610      C1611   1.467       .  A
C1611      C1618   1.529       .  S
C1611      C1612   1.404       .  A
C1612      C1613   1.383       .  A
C1612      H1617   1.087       .  S
C1613      C1614   1.429       .  A
C1614      C1615   1.507       .  S
C1615      F1619   1.381       .  S
C1615      F1620   1.385       .  S
C1615      F1621   1.381       .  S
C1618      F1622   1.383       .  S
C1618      F1623   1.362       .  S
C1618      F1624   1.384       .  S
C1625      C1626   1.419       .  A
C1625      C1630   1.422       .  A
C1625      H1632   1.083       .  S
C1626      C1627   1.429       .  A
C1627      C1634   1.513       .  S
C1627      C1628   1.412       .  A
C1628      C1629   1.402       .  A
C1628      H1633   1.085       .  S
C1629      C1630   1.431       .  A
C1630      C1631   1.518       .  S
C1631      F1635   1.384       .  S
C1631      F1636   1.382       .  S
C1631      F1637   1.382       .  S
C1634      F1638   1.384       .  S
C1634      F1639   1.369       .  S
C1634      F1640   1.385       .  S
C1641      C1642   1.443       .  A
C1641      C1646   1.391       .  A
C1641      H1648   1.070       .  S
C1642      C1643   1.431       .  A
C1643      C1650   1.512       .  S
C1643      C1644   1.436       .  A
C1644      C1645   1.427       .  A
C1644      H1649   1.084       .  S
C1645      C1646   1.393       .  A
C1646      C1647   1.522       .  S
C1647      F1651   1.384       .  S
C1647      F1652   1.380       .  S
C1647      F1653   1.383       .  S
C1650      F1654   1.375       .  S
C1650      F1655   1.383       .  S
C1650      F1656   1.383       .  S
C1657      C1658   1.441       .  A
C1657      C1662   1.451       .  A
C1657      H1664   1.076       .  S
C1658      C1659   1.462       .  A
C1659      C1666   1.514       .  S
C1659      C1660   1.457       .  A
C1660      C1661   1.423       .  A
C1660      H1665   1.060       .  S
C1661      C1662   1.452       .  A
C1662      C1663   1.527       .  S
C1663      F1667   1.378       .  S
C1663      F1668   1.370       .  S
C1663      F1669   1.382       .  S
C1666      F1670   1.375       .  S
C1666      F1671   1.371       .  S
C1666      F1672   1.385       .  S
C1673      C1674   1.426       .  A
C1673      C1678   1.411   1_554  A
C1673      H1680   1.076       .  S
C1674      C1675   1.406   1_554  A
C1675      C1682   1.520   1_556  S
C1675      C1676   1.407       .  A
C1676      C1677   1.425       .  A
C1676      H1681   1.081       .  S
C1677      C1678   1.427       .  A
C1678      C1679   1.525   1_556  S
C1679      F1683   1.384       .  S
C1679      F1684   1.375       .  S
C1679      F1685   1.378   1_554  S
C1682      F1686   1.376       .  S
C1682      F1687   1.380       .  S
C1682      F1688   1.381   1_554  S
C1689      C1690   1.413       .  A
C1689      C1694   1.419       .  A
C1689      H1696   1.067       .  S
C1690      C1691   1.445       .  A
C1691      C1698   1.520       .  S
C1691      C1692   1.413       .  A
C1692      C1693   1.403       .  A
C1692      H1697   1.085       .  S
C1693      C1694   1.429       .  A
C1694      C1695   1.525       .  S
C1695      F1699   1.380       .  S
C1695      F1700   1.379       .  S
C1695      F1701   1.382       .  S
C1698      F1702   1.375       .  S
C1698      F1703   1.384       .  S
C1698      F1704   1.381       .  S
C1705      C1706   1.413       .  A
C1705      C1710   1.429       .  A
C1705      H1712   1.078   1_554  S
C1706      C1707   1.463       .  A
C1707      C1714   1.526       .  S
C1707      C1708   1.453       .  A
C1708      C1709   1.421       .  A
C1708      H1713   1.079       .  S
C1709      C1710   1.460       .  A
C1710      C1711   1.522       .  S
C1711      F1715   1.384   1_554  S
C1711      F1716   1.376   1_554  S
C1711      F1717   1.361       .  S
C1714      F1718   1.375       .  S
C1714      F1719   1.376       .  S
C1714      F1720   1.385       .  S
C1721      C1722   1.403   1_554  A
C1721      C1726   1.406       .  A
C1721      H1728   1.080       .  S
C1722      C1723   1.477       .  A
C1723      C1730   1.528       .  S
C1723      C1724   1.392       .  A
C1724      C1725   1.367       .  A
C1724      H1729   1.087       .  S
C1725      C1726   1.420   1_556  A
C1726      C1727   1.500       .  S
C1727      F1731   1.385       .  S
C1727      F1732   1.374       .  S
C1727      F1733   1.382       .  S
C1730      F1734   1.383       .  S
C1730      F1735   1.356       .  S
C1730      F1736   1.381       .  S
C1737      C1738   1.422   1_556  A
C1737      C1742   1.406       .  A
C1737      H1744   1.078       .  S
C1738      C1739   1.420       .  A
C1739      C1746   1.523       .  S
C1739      C1740   1.410       .  A
C1740      C1741   1.414       .  A
C1740      H1745   1.083       .  S
C1741      C1742   1.412   1_554  A
C1742      C1743   1.519       .  S
C1743      F1747   1.384       .  S
C1743      F1748   1.370       .  S
C1743      F1749   1.381   1_455  S
C1746      F1750   1.383       .  S
C1746      F1751   1.372       .  S
C1746      F1752   1.385       .  S
C1753      C1754   1.443   1_655  A
C1753      C1758   1.397       .  A
C1753      H1760   1.073       .  S
C1754      C1755   1.434       .  A
C1755      C1762   1.511       .  S
C1755      C1756   1.428       .  A
C1756      C1757   1.413   1_455  A
C1756      H1761   1.085       .  S
C1757      C1758   1.389       .  A
C1758      C1759   1.521       .  S
C1759      F1763   1.384       .  S
C1759      F1764   1.383       .  S
C1759      F1765   1.383       .  S
C1762      F1766   1.374       .  S
C1762      F1767   1.380       .  S
C1762      F1768   1.384       .  S
C1769      C1770   1.425       .  A
C1769      C1774   1.409       .  A
C1769      H1776   1.074   1_455  S
C1770      C1771   1.434       .  A
C1771      C1778   1.517   1_554  S
C1771      C1772   1.438       .  A
C1772      C1773   1.436       .  A
C1772      H1777   1.076       .  S
C1773      C1774   1.457       .  A
C1774      C1775   1.545       .  S
C1775      F1779   1.389   1_455  S
C1775      F1780   1.380   1_455  S
C1775      F1781   1.366       .  S
C1778      F1782   1.382   1_556  S
C1778      F1783   1.371       .  S
C1778      F1784   1.385       .  S
C1785      C1786   1.409       .  A
C1785      C1790   1.415       .  A
C1785      H1792   1.081       .  S
C1786      C1787   1.449       .  A
C1787      C1794   1.533   1_455  S
C1787      C1788   1.432       .  A
C1788      C1789   1.419       .  A
C1788      H1793   1.069       .  S
C1789      C1790   1.452       .  A
C1790      C1791   1.522       .  S
C1791      F1795   1.376       .  S
C1791      F1796   1.373       .  S
C1791      F1797   1.355       .  S
C1794      F1798   1.382       .  S
C1794      F1799   1.369       .  S
C1794      F1800   1.380       .  S
C1801      C1802   1.432       .  A
C1801      C1806   1.410       .  A
C1801      H1808   1.082       .  S
C1802      C1803   1.409   1_545  A
C1803      C1810   1.517       .  S
C1803      C1804   1.401       .  A
C1804      C1805   1.412   1_565  A
C1804      H1809   1.085       .  S
C1805      C1806   1.412       .  A
C1806      C1807   1.535       .  S
C1807      F1811   1.384       .  S
C1807      F1812   1.375       .  S
C1807      F1813   1.373       .  S
C1810      F1814   1.378   1_565  S
C1810      F1815   1.384   1_565  S
C1810      F1816   1.380       .  S
C1817      C1818   1.415       .  A
C1817      C1822   1.409       .  A
C1817      H1824   1.083       .  S
C1818      C1819   1.391   1_545  A
C1819      C1826   1.532       .  S
C1819      C1820   1.368       .  A
C1820      C1821   1.444   1_565  A
C1820      H1825   1.076       .  S
C1821      C1822   1.427       .  A
C1822      C1823   1.511       .  S
C1823      F1827   1.384       .  S
C1823      F1828   1.360       .  S
C1823      F1829   1.384       .  S
C1826      F1830   1.384       .  S
C1826      F1831   1.379       .  S
C1826      F1832   1.385       .  S
C1833      C1834   1.389       .  A
C1833      C1838   1.409       .  A
C1833      H1840   1.084       .  S
C1834      C1835   1.435       .  A
C1835      C1842   1.510       .  S
C1835      C1836   1.408       .  A
C1836      C1837   1.390       .  A
C1836      H1841   1.077       .  S
C1837      C1838   1.466       .  A
C1838      C1839   1.529       .  S
C1839      F1843   1.380       .  S
C1839      F1844   1.384       .  S
C1839      F1845   1.366       .  S
C1842      F1846   1.373       .  S
C1842      F1847   1.382       .  S
C1842      F1848   1.385       .  S
C1849      C1850   1.427       .  A
C1849      C1854   1.430       .  A
C1849      H1856   1.080       .  S
C1850      C1851   1.447       .  A
C1851      C1858   1.541       .  S
C1851      C1852   1.416       .  A
C1852      C1853   1.428       .  A
C1852      H1857   1.069       .  S
C1853      C1854   1.443       .  A
C1854      C1855   1.522       .  S
C1855      F1859   1.385       .  S
C1855      F1860   1.376   1_545  S
C1855      F1861   1.375       .  S
C1858      F1862   1.372       .  S
C1858      F1863   1.368       .  S
C1858      F1864   1.382       .  S
C1865      C1866   1.423   1_554  A
C1865      C1870   1.412       .  A
C1865      H1872   1.061       .  S
C1866      C1867   1.435       .  A
C1867      C1874   1.516       .  S
C1867      C1868   1.426       .  A
C1868      C1869   1.415   1_556  A
C1868      H1873   1.084       .  S
C1869      C1870   1.417       .  A
C1870      C1871   1.522       .  S
C1871      F1875   1.382       .  S
C1871      F1876   1.382       .  S
C1871      F1877   1.383       .  S
C1874      F1878   1.383       .  S
C1874      F1879   1.377       .  S
C1874      F1880   1.383       .  S
C1881      C1882   1.424       .  A
C1881      C1886   1.378       .  A
C1881      H1888   1.064       .  S
C1882      C1883   1.420       .  A
C1883      C1890   1.517       .  S
C1883      C1884   1.409       .  A
C1884      C1885   1.410       .  A
C1884      H1889   1.084       .  S
C1885      C1886   1.409       .  A
C1886      C1887   1.535       .  S
C1887      F1891   1.383       .  S
C1887      F1892   1.381       .  S
C1887      F1893   1.384       .  S
C1890      F1894   1.380   1_554  S
C1890      F1895   1.380       .  S
C1890      F1896   1.385       .  S
C1897      C1898   1.441   1_455  A
C1897      C1902   1.414       .  A
C1897      H1904   1.072       .  S
C1898      C1899   1.434       .  A
C1899      C1906   1.522       .  S
C1899      C1900   1.424       .  A
C1900      C1901   1.423       .  A
C1900      H1905   1.084       .  S
C1901      C1902   1.406   1_655  A
C1902      C1903   1.519       .  S
C1903      F1907   1.384       .  S
C1903      F1908   1.383       .  S
C1903      F1909   1.383       .  S
C1906      F1910   1.383       .  S
C1906      F1911   1.374       .  S
C1906      F1912   1.385       .  S
C1913      C1914   1.421       .  A
C1913      C1918   1.416   1_655  A
C1913      H1920   1.044   1_655  S
C1914      C1915   1.453       .  A
C1915      C1922   1.515       .  S
C1915      C1916   1.426       .  A
C1916      C1917   1.410       .  A
C1916      H1921   1.083       .  S
C1917      C1918   1.412   1_655  A
C1918      C1919   1.528       .  S
C1919      F1923   1.373       .  S
C1919      F1924   1.380       .  S
C1919      F1925   1.381       .  S
C1922      F1926   1.381       .  S
C1922      F1927   1.378       .  S
C1922      F1928   1.383       .  S
C1929      C1930   1.412       .  A
C1929      C1934   1.397       .  A
C1929      H1936   1.074       .  S
C1930      C1931   1.435       .  A
C1931      C1938   1.530       .  S
C1931      C1932   1.396       .  A
C1932      C1933   1.397       .  A
C1932      H1937   1.085       .  S
C1933      C1934   1.422       .  A
C1934      C1935   1.524       .  S
C1935      F1939   1.384       .  S
C1935      F1940   1.383       .  S
C1935      F1941   1.384       .  S
C1938      F1942   1.381       .  S
C1938      F1943   1.372       .  S
C1938      F1944   1.384       .  S
C1945      C1946   1.442       .  A
C1945      C1950   1.457       .  A
C1945      H1952   1.074       .  S
C1946      C1947   1.459       .  A
C1947      C1954   1.534       .  S
C1947      C1948   1.426       .  A
C1948      C1949   1.412       .  A
C1948      H1953   1.071       .  S
C1949      C1950   1.456       .  A
C1950      C1951   1.525       .  S
C1951      F1955   1.386       .  S
C1951      F1956   1.367   1_655  S
C1951      F1957   1.381   1_655  S
C1954      F1958   1.354       .  S
C1954      F1959   1.384       .  S
C1954      F1960   1.386       .  S
C1961      C1962   1.426       .  A
C1961      C1966   1.443       .  A
C1961      H1968   1.047       .  S
C1962      C1963   1.464       .  A
C1963      C1970   1.534       .  S
C1963      C1964   1.429       .  A
C1964      C1965   1.416       .  A
C1964      H1969   1.073       .  S
C1965      C1966   1.438       .  A
C1966      C1967   1.528       .  S
C1967      F1971   1.383       .  S
C1967      F1972   1.381       .  S
C1967      F1973   1.372   1_556  S
C1970      F1974   1.372       .  S
C1970      F1975   1.378       .  S
C1970      F1976   1.387       .  S
C1977      C1978   1.388       .  A
C1977      C1982   1.428       .  A
C1977      H1984   1.080       .  S
C1978      C1979   1.459       .  A
C1979      C1986   1.528       .  S
C1979      C1980   1.442       .  A
C1980      C1981   1.411       .  A
C1980      H1985   1.057       .  S
C1981      C1982   1.489       .  A
C1982      C1983   1.545       .  S
C1983      F1987   1.387       .  S
C1983      F1988   1.376       .  S
C1983      F1989   1.362   1_655  S
C1986      F1990   1.367       .  S
C1986      F1991   1.374       .  S
C1986      F1992   1.385       .  S
C1993      C1994   1.424       .  A
C1993      C1998   1.432       .  A
C1993      H2000   1.084       .  S
C1994      C1995   1.439       .  A
C1995      C2002   1.533       .  S
C1995      C1996   1.405       .  A
C1996      C1997   1.422       .  A
C1996      H2001   1.068       .  S
C1997      C1998   1.450       .  A
C1998      C1999   1.518       .  S
C1999      F2003   1.383       .  S
C1999      F2004   1.372       .  S
C1999      F2005   1.384       .  S
C2002      F2006   1.361       .  S
C2002      F2007   1.382       .  S
C2002      F2008   1.386       .  S
C2009      C2010   1.394       .  A
C2009      C2014   1.377       .  A
C2009      H2016   1.087       .  S
C2010      C2011   1.409       .  A
C2011      C2018   1.501       .  S
C2011      C2012   1.409       .  A
C2012      C2013   1.434       .  A
C2012      H2017   1.081       .  S
C2013      C2014   1.458       .  A
C2014      C2015   1.546       .  S
C2015      F2019   1.388   1_556  S
C2015      F2020   1.362   1_556  S
C2015      F2021   1.381       .  S
C2018      F2022   1.382   1_556  S
C2018      F2023   1.377       .  S
C2018      F2024   1.384       .  S
C2025      C2026   1.369       .  A
C2025      C2030   1.378       .  A
C2025      H2032   1.078   1_556  S
C2026      C2027   1.423       .  A
C2027      C2034   1.512       .  S
C2027      C2028   1.422       .  A
C2028      C2029   1.416       .  A
C2028      H2033   1.078       .  S
C2029      C2030   1.470       .  A
C2030      C2031   1.530   1_556  S
C2031      F2035   1.365   1_554  S
C2031      F2036   1.363       .  S
C2031      F2037   1.386       .  S
C2034      F2038   1.381       .  S
C2034      F2039   1.382       .  S
C2034      F2040   1.378       .  S
C2041      C2042   1.409       .  A
C2041      C2046   1.398       .  A
C2041      H2048   1.085       .  S
C2042      C2043   1.415       .  A
C2043      C2050   1.501   1_554  S
C2043      C2044   1.397       .  A
C2044      C2045   1.412       .  A
C2044      H2049   1.081       .  S
C2045      C2046   1.413       .  A
C2046      C2047   1.516       .  S
C2047      F2051   1.385       .  S
C2047      F2052   1.381       .  S
C2047      F2053   1.379       .  S
C2050      F2054   1.382       .  S
C2050      F2055   1.380   1_556  S
C2050      F2056   1.385       .  S
C2057      C2058   1.417       .  A
C2057      C2062   1.428       .  A
C2057      H2064   1.085       .  S
C2058      C2059   1.424       .  A
C2059      C2066   1.521       .  S
C2059      C2060   1.422       .  A
C2060      C2061   1.426       .  A
C2060      H2065   1.067       .  S
C2061      C2062   1.425       .  A
C2062      C2063   1.507       .  S
C2063      F2067   1.381       .  S
C2063      F2068   1.374       .  S
C2063      F2069   1.383       .  S
C2066      F2070   1.379       .  S
C2066      F2071   1.374       .  S
C2066      F2072   1.377       .  S
C2073      C2074   1.451       .  A
C2073      C2078   1.392       .  A
C2073      H2080   1.076       .  S
C2074      C2075   1.437   1_556  A
C2075      C2082   1.525       .  S
C2075      C2076   1.420   1_554  A
C2076      C2077   1.423       .  A
C2076      H2081   1.085   1_556  S
C2077      C2078   1.390       .  A
C2078      C2079   1.523       .  S
C2079      F2083   1.382       .  S
C2079      F2084   1.384       .  S
C2079      F2085   1.381       .  S
C2082      F2086   1.365       .  S
C2082      F2087   1.383       .  S
C2082      F2088   1.384       .  S
C2089      C2090   1.434       .  A
C2089      C2094   1.400       .  A
C2089      H2096   1.077       .  S
C2090      C2091   1.434       .  A
C2091      C2098   1.521       .  S
C2091      C2092   1.424       .  A
C2092      C2093   1.410       .  A
C2092      H2097   1.082       .  S
C2093      C2094   1.406       .  A
C2094      C2095   1.523       .  S
C2095      F2099   1.384       .  S
C2095      F2100   1.382       .  S
C2095      F2101   1.383   1_554  S
C2098      F2102   1.383       .  S
C2098      F2103   1.375       .  S
C2098      F2104   1.384       .  S
C2105      C2106   1.429       .  A
C2105      C2110   1.425       .  A
C2105      H2112   1.076   1_554  S
C2106      C2107   1.448       .  A
C2107      C2114   1.522       .  S
C2107      C2108   1.438       .  A
C2108      C2109   1.423       .  A
C2108      H2113   1.066       .  S
C2109      C2110   1.446       .  A
C2110      C2111   1.528       .  S
C2111      F2115   1.383   1_554  S
C2111      F2116   1.379       .  S
C2111      F2117   1.370       .  S
C2114      F2118   1.371       .  S
C2114      F2119   1.385       .  S
C2114      F2120   1.380       .  S
C2121      C2122   1.403       .  A
C2121      C2126   1.409       .  A
C2121      H2128   1.071       .  S
C2122      C2123   1.420       .  A
C2123      C2130   1.509       .  S
C2123      C2124   1.395       .  A
C2124      C2125   1.401       .  A
C2124      H2129   1.084       .  S
C2125      C2126   1.434       .  A
C2126      C2127   1.521       .  S
C2127      F2131   1.385       .  S
C2127      F2132   1.381       .  S
C2127      F2133   1.377       .  S
C2130      F2134   1.380       .  S
C2130      F2135   1.382       .  S
C2130      F2136   1.385       .  S
C2137      C2138   1.407       .  A
C2137      C2142   1.387       .  A
C2137      H2144   1.057       .  S
C2138      C2139   1.442       .  A
C2139      C2146   1.524       .  S
C2139      C2140   1.404       .  A
C2140      C2141   1.394       .  A
C2140      H2145   1.085       .  S
C2141      C2142   1.406       .  A
C2142      C2143   1.525       .  S
C2143      F2147   1.381       .  S
C2143      F2148   1.382       .  S
C2143      F2149   1.378       .  S
C2146      F2150   1.384       .  S
C2146      F2151   1.375       .  S
C2146      F2152   1.384       .  S
C2153      C2154   1.401       .  A
C2153      C2158   1.441       .  A
C2153      H2160   1.065       .  S
C2154      C2155   1.479       .  A
C2155      C2162   1.545       .  S
C2155      C2156   1.429       .  A
C2156      C2157   1.396       .  A
C2156      H2161   1.072       .  S
C2157      C2158   1.472       .  A
C2158      C2159   1.528       .  S
C2159      F2163   1.375       .  S
C2159      F2164   1.367       .  S
C2159      F2165   1.387       .  S
C2162      F2166   1.380       .  S
C2162      F2167   1.370       .  S
C2162      F2168   1.383       .  S
C2169      C2170   1.398       .  A
C2169      C2174   1.405       .  A
C2169      H2176   1.085       .  S
C2170      C2171   1.417       .  A
C2171      C2178   1.510       .  S
C2171      C2172   1.387       .  A
C2172      C2173   1.401       .  A
C2172      H2177   1.060       .  S
C2173      C2174   1.446       .  A
C2174      C2175   1.511       .  S
C2175      F2179   1.381       .  S
C2175      F2180   1.374       .  S
C2175      F2181   1.382       .  S
C2178      F2182   1.380       .  S
C2178      F2183   1.379       .  S
C2178      F2184   1.381       .  S
C2185      C2186   1.392       .  A
C2185      C2190   1.397       .  A
C2185      H2192   1.084       .  S
C2186      C2187   1.423       .  A
C2187      C2194   1.513       .  S
C2187      C2188   1.394       .  A
C2188      C2189   1.400       .  A
C2188      H2193   1.079       .  S
C2189      C2190   1.432       .  A
C2190      C2191   1.504       .  S
C2191      F2195   1.384       .  S
C2191      F2196   1.377       .  S
C2191      F2197   1.381       .  S
C2194      F2198   1.381       .  S
C2194      F2199   1.372       .  S
C2194      F2200   1.385       .  S
C2201      C2202   1.424       .  A
C2201      C2206   1.444       .  A
C2201      H2208   1.065       .  S
C2202      C2203   1.480       .  A
C2203      C2210   1.533       .  S
C2203      C2204   1.412       .  A
C2204      C2205   1.382       .  A
C2204      H2209   1.087       .  S
C2205      C2206   1.441       .  A
C2206      C2207   1.517       .  S
C2207      F2211   1.382       .  S
C2207      F2212   1.378       .  S
C2207      F2213   1.376       .  S
C2210      F2214   1.389       .  S
C2210      F2215   1.356       .  S
C2210      F2216   1.378       .  S
C2217      C2218   1.392       .  A
C2217      C2222   1.400       .  A
C2217      H2224   1.086       .  S
C2218      C2219   1.407       .  A
C2219      C2226   1.516       .  S
C2219      C2220   1.409       .  A
C2220      C2221   1.415       .  A
C2220      H2225   1.060       .  S
C2221      C2222   1.455       .  A
C2222      C2223   1.523       .  S
C2223      F2227   1.383       .  S
C2223      F2228   1.367       .  S
C2223      F2229   1.385       .  S
C2226      F2230   1.382       .  S
C2226      F2231   1.383       .  S
C2226      F2232   1.385       .  S
C2233      C2234   1.414       .  A
C2233      C2238   1.422       .  A
C2233      H2240   1.084       .  S
C2234      C2235   1.426       .  A
C2235      C2242   1.527       .  S
C2235      C2236   1.412       .  A
C2236      C2237   1.432       .  A
C2236      H2241   1.081       .  S
C2237      C2238   1.405       .  A
C2238      C2239   1.516       .  S
C2239      F2243   1.383       .  S
C2239      F2244   1.383       .  S
C2239      F2245   1.384       .  S
C2242      F2246   1.378       .  S
C2242      F2247   1.373       .  S
C2242      F2248   1.379       .  S
C2249      C2250   1.391       .  A
C2249      C2254   1.411       .  A
C2249      H2256   1.081       .  S
C2250      C2251   1.455       .  A
C2251      C2258   1.520       .  S
C2251      C2252   1.400       .  A
C2252      C2253   1.384       .  A
C2252      H2257   1.087       .  S
C2253      C2254   1.436       .  A
C2254      C2255   1.506       .  S
C2255      F2259   1.383       .  S
C2255      F2260   1.379       .  S
C2255      F2261   1.381       .  S
C2258      F2262   1.380       .  S
C2258      F2263   1.368       .  S
C2258      F2264   1.381       .  S
C2265      C2266   1.426       .  A
C2265      C2270   1.422       .  A
C2265      H2272   1.076       .  S
C2266      C2267   1.449       .  A
C2267      C2274   1.526       .  S
C2267      C2268   1.442       .  A
C2268      C2269   1.422       .  A
C2268      H2273   1.071       .  S
C2269      C2270   1.445       .  A
C2270      C2271   1.529       .  S
C2271      F2275   1.387       .  S
C2271      F2276   1.379       .  S
C2271      F2277   1.378       .  S
C2274      F2278   1.385       .  S
C2274      F2279   1.372       .  S
C2274      F2280   1.381       .  S
C2281      C2282   1.419       .  A
C2281      C2286   1.417       .  A
C2281      H2288   1.064       .  S
C2282      C2283   1.452       .  A
C2283      C2290   1.527       .  S
C2283      C2284   1.404       .  A
C2284      C2285   1.401       .  A
C2284      H2289   1.086       .  S
C2285      C2286   1.416       .  A
C2286      C2287   1.519       .  S
C2287      F2291   1.381       .  S
C2287      F2292   1.374       .  S
C2287      F2293   1.382       .  S
C2290      F2294   1.383       .  S
C2290      F2295   1.372       .  S
C2290      F2296   1.384       .  S
C2297      C2298   1.408       .  A
C2297      C2302   1.421       .  A
C2297      H2304   1.077       .  S
C2298      C2299   1.465       .  A
C2299      C2306   1.536       .  S
C2299      C2300   1.376       .  A
C2300      C2301   1.372       .  A
C2300      H2305   1.086       .  S
C2301      C2302   1.435       .  A
C2302      C2303   1.508       .  S
C2303      F2307   1.384       .  S
C2303      F2308   1.382       .  S
C2303      F2309   1.372       .  S
C2306      F2310   1.359       .  S
C2306      F2311   1.384       .  S
C2306      F2312   1.383       .  S
C2313      C2314   1.409   1_445  A
C2313      C2318   1.412       .  A
C2313      H2320   1.080       .  S
C2314      C2315   1.477       .  A
C2315      C2322   1.539       .  S
C2315      C2316   1.392       .  A
C2316      C2317   1.362   1_655  A
C2316      H2321   1.086       .  S
C2317      C2318   1.425   1_565  A
C2318      C2319   1.516       .  S
C2319      F2323   1.384       .  S
C2319      F2324   1.378       .  S
C2319      F2325   1.381       .  S
C2322      F2326   1.360       .  S
C2322      F2327   1.383       .  S
C2322      F2328   1.384       .  S
C2329      C2330   1.402       .  A
C2329      C2334   1.427   1_545  A
C2329      H2336   1.082       .  S
C2330      C2331   1.460       .  A
C2331      C2338   1.522       .  S
C2331      C2332   1.404       .  A
C2332      C2333   1.389       .  A
C2332      H2337   1.085       .  S
C2333      C2334   1.427   1_545  A
C2334      C2335   1.490       .  S
C2335      F2339   1.384       .  S
C2335      F2340   1.376   1_565  S
C2335      F2341   1.378       .  S
C2338      F2342   1.385       .  S
C2338      F2343   1.362       .  S
C2338      F2344   1.376       .  S
C2345      C2346   1.422       .  A
C2345      C2350   1.428       .  A
C2345      H2352   1.067       .  S
C2346      C2347   1.453   1_655  A
C2347      C2354   1.532       .  S
C2347      C2348   1.402       .  A
C2348      C2349   1.401   1_455  A
C2348      H2353   1.078       .  S
C2349      C2350   1.423       .  A
C2350      C2351   1.518       .  S
C2351      F2355   1.381       .  S
C2351      F2356   1.382       .  S
C2351      F2357   1.375       .  S
C2354      F2358   1.385       .  S
C2354      F2359   1.370       .  S
C2354      F2360   1.383       .  S
C2361      C2362   1.427       .  A
C2361      C2366   1.441       .  A
C2361      H2368   1.078   1_545  S
C2362      C2363   1.455       .  A
C2363      C2370   1.520   1_455  S
C2363      C2364   1.438       .  A
C2364      C2365   1.420       .  A
C2364      H2369   1.083       .  S
C2365      C2366   1.464       .  A
C2366      C2367   1.538       .  S
C2367      F2371   1.384   1_545  S
C2367      F2372   1.376       .  S
C2367      F2373   1.380   1_545  S
C2370      F2374   1.381   1_655  S
C2370      F2375   1.364       .  S
C2370      F2376   1.383       .  S
C2377      C2378   1.418       .  A
C2377      C2382   1.424       .  A
C2377      H2384   1.076       .  S
C2378      C2379   1.476       .  A
C2379      C2386   1.540       .  S
C2379      C2380   1.393       .  A
C2380      C2381   1.377       .  A
C2380      H2385   1.088       .  S
C2381      C2382   1.420       .  A
C2382      C2383   1.522       .  S
C2383      F2387   1.384       .  S
C2383      F2388   1.364       .  S
C2383      F2389   1.384       .  S
C2386      F2390   1.383       .  S
C2386      F2391   1.361       .  S
C2386      F2392   1.388       .  S
C2393      C2394   1.422       .  A
C2393      C2398   1.407       .  A
C2393      H2400   1.072       .  S
C2394      C2395   1.440       .  A
C2395      C2402   1.524       .  S
C2395      C2396   1.410       .  A
C2396      C2397   1.402       .  A
C2396      H2401   1.085       .  S
C2397      C2398   1.402       .  A
C2398      C2399   1.523       .  S
C2399      F2403   1.381       .  S
C2399      F2404   1.378       .  S
C2399      F2405   1.382       .  S
C2402      F2406   1.378       .  S
C2402      F2407   1.383       .  S
C2402      F2408   1.383       .  S
C2409      C2410   1.402       .  A
C2409      C2414   1.427       .  A
C2409      H2416   1.083       .  S
C2410      C2411   1.449       .  A
C2411      C2418   1.518       .  S
C2411      C2412   1.398       .  A
C2412      C2413   1.382       .  A
C2412      H2417   1.087       .  S
C2413      C2414   1.448       .  A
C2414      C2415   1.517       .  S
C2415      F2419   1.382       .  S
C2415      F2420   1.379       .  S
C2415      F2421   1.383       .  S
C2418      F2422   1.367       .  S
C2418      F2423   1.380       .  S
C2418      F2424   1.381       .  S
C2425      C2426   1.440       .  A
C2425      C2430   1.450       .  A
C2425      H2432   1.075       .  S
C2426      C2427   1.453       .  A
C2427      C2434   1.514       .  S
C2427      C2428   1.459       .  A
C2428      C2429   1.437       .  A
C2428      H2433   1.061       .  S
C2429      C2430   1.452       .  A
C2430      C2431   1.521       .  S
C2431      F2435   1.383       .  S
C2431      F2436   1.368       .  S
C2431      F2437   1.370       .  S
C2434      F2438   1.384       .  S
C2434      F2439   1.352       .  S
C2434      F2440   1.379       .  S
C2441      C2442   1.419   1_544  A
C2441      C2446   1.427       .  A
C2441      H2448   1.058       .  S
C2442      C2443   1.487       .  A
C2443      C2450   1.528       .  S
C2443      C2444   1.414       .  A
C2444      C2445   1.371       .  A
C2444      H2449   1.088       .  S
C2445      C2446   1.413   1_566  A
C2446      C2447   1.504       .  S
C2447      F2451   1.385       .  S
C2447      F2452   1.373       .  S
C2447      F2453   1.382   1_545  S
C2450      F2454   1.383       .  S
C2450      F2455   1.340       .  S
C2450      F2456   1.387       .  S
C2457      C2458   1.424   1_565  A
C2457      C2462   1.411       .  A
C2457      H2464   1.050       .  S
C2458      C2459   1.439       .  A
C2459      C2466   1.523       .  S
C2459      C2460   1.391       .  A
C2460      C2461   1.401       .  A
C2460      H2465   1.085       .  S
C2461      C2462   1.408   1_545  A
C2462      C2463   1.526       .  S
C2463      F2467   1.383       .  S
C2463      F2468   1.382       .  S
C2463      F2469   1.377       .  S
C2466      F2470   1.384       .  S
C2466      F2471   1.360   1_556  S
C2466      F2472   1.384       .  S
C2473      C2474   1.389       .  A
C2473      C2478   1.402   1_554  A
C2473      H2480   1.063       .  S
C2474      C2475   1.421       .  A
C2475      C2482   1.513       .  S
C2475      C2476   1.405       .  A
C2476      C2477   1.415       .  A
C2476      H2481   1.083       .  S
C2477      C2478   1.429   1_554  A
C2478      C2479   1.488       .  S
C2479      F2483   1.386       .  S
C2479      F2484   1.370       .  S
C2479      F2485   1.381       .  S
C2482      F2486   1.374       .  S
C2482      F2487   1.380       .  S
C2482      F2488   1.378       .  S
C2489      C2490   1.408       .  A
C2489      C2494   1.438       .  A
C2489      H2496   1.058       .  S
C2490      C2491   1.453       .  A
C2491      C2498   1.527   1_545  S
C2491      C2492   1.422       .  A
C2492      C2493   1.411       .  A
C2492      H2497   1.079       .  S
C2493      C2494   1.469       .  A
C2494      C2495   1.525       .  S
C2495      F2499   1.386       .  S
C2495      F2500   1.356       .  S
C2495      F2501   1.376       .  S
C2498      F2502   1.378       .  S
C2498      F2503   1.369       .  S
C2498      F2504   1.388       .  S
