geometry optimzed in LAMMPS
_audit_creation_date              2020-11-30 
_audit_creation_method            'lammps2cif' 
_symmetry_space_group_name_H-M    'P1' 
_symmetry_Int_Tables_number       1 
_symmetry_cell_setting            triclinic 
loop_ 
_symmetry_equiv_pos_as_xyz 
  x,y,z 
_cell_length_a                    20.113294623630626 
_cell_length_b                    40.25261250294145 
_cell_length_c                    32.514546642849 
_cell_angle_alpha                 93.36240722578161 
_cell_angle_beta                  90.8331511854332 
_cell_angle_gamma                 91.6073194010598 
loop_ 
_atom_site_label 
_atom_site_type_symbol 
_atom_site_fract_x 
_atom_site_fract_y 
_atom_site_fract_z 
_atom_site_charge 
C1          C  0.51143709  0.92708946  0.07297972    -0.02180
C2          C  0.26115610  0.92562694  0.17682274    -0.02180
In3        In  0.25447879  0.71628662  0.18987842     1.36870
C4          C  0.25928867  0.65887746  0.22567532     0.77890
O5          O  0.14591101  0.71429942  0.17953446    -0.60560
O6          O  0.21047664  0.69983026  0.12984726    -0.51470
C7          C  0.24257524  0.78190715  0.20354445     0.70550
O8          O  0.25904962  0.76437163  0.23318628    -0.46330
C9          C  0.35558143  0.71752936  0.14242305     0.75260
O10         O  0.20721290  0.67564450  0.22576088    -0.58190
O11         O  0.30077171  0.70380273  0.13141147    -0.48280
O12         O  0.31086013  0.67503566  0.21626130    -0.54620
C13         C  0.15270686  0.70640661  0.14156112     0.85440
O14         O  0.23284460  0.76554225  0.17009456    -0.56510
O15         O  0.36074579  0.72908502  0.17946540    -0.59810
In16       In  0.00426708  0.72025337  0.06051124     1.36870
C17         C  0.99243523  0.66015751  0.02453913     0.77890
O18         O  0.10863511  0.70774907  0.07385114    -0.60560
O19         O  0.04171884  0.71540496  0.12397891    -0.51470
C20         C  0.00700471  0.78171695  0.03524873     0.70550
O21         O  0.55925207  0.76690418  0.04331122    -0.46330
C22         C  0.40821143  0.71975625  0.11338210     0.75260
O23         O  0.94486103  0.67977328  0.02565635    -0.58190
O24         O  0.46446555  0.73265930  0.12299164    -0.48280
O25         O  0.54861324  0.67424099  0.03048443    -0.54620
C26         C  0.09938292  0.70889829  0.11230539     0.85440
O27         O  0.95627034  0.76294751  0.03157145    -0.56510
O28         O  0.40094512  0.70826915  0.07668466    -0.59810
C29         C  0.97832802  0.52271596  0.07773176    -0.02180
C30         C  0.23370544  0.51626068  0.18100422    -0.02180
C31         C  0.01100611  0.02273642  0.43532010    -0.02180
C32         C  0.25670724  0.01899677  0.32994710    -0.02180
In33       In  0.24971537  0.21870508  0.30717989     1.36870
C34         C  0.24599702  0.28078332  0.28447043     0.77890
O35         O  0.14203106  0.21522033  0.31998178    -0.60560
O36         O  0.21189207  0.21066459  0.36949100    -0.51470
C37         C  0.25150274  0.15624205  0.27741952     0.70550
O38         O  0.20294361  0.17404292  0.26983532    -0.46330
C39         C  0.34785451  0.22699247  0.35977431     0.75260
O40         O  0.29765789  0.26424483  0.27937281    -0.58190
O41         O  0.28830877  0.22788219  0.37119119    -0.48280
O42         O  0.19466016  0.26326838  0.28977791    -0.54620
C43         C  0.15212112  0.21194284  0.35792634     0.85440
O44         O  0.30322092  0.17241184  0.28892819    -0.56510
O45         O  0.35697140  0.22322673  0.32138958    -0.59810
In46       In  0.50357056  0.22398664  0.43849280     1.36870
C47         C  0.99991045  0.16547823  0.47136806     0.77890
O48         O  0.39521426  0.23066188  0.42750920    -0.60560
O49         O  0.46061803  0.22372966  0.37637390    -0.51470
C50         C  0.51766613  0.28776626  0.46158030     0.70550
O51         O  0.06320575  0.27118317  0.44556147    -0.46330
C52         C  0.09919396  0.21298580  0.38702490     0.75260
O53         O  0.54315774  0.18757614  0.48254680    -0.58190
O54         O  0.03962956  0.21458242  0.37527956    -0.48280
O55         O  0.95245954  0.17571135  0.45065959    -0.54620
C56         C  0.40239868  0.22780095  0.38882825     0.85440
O57         O  0.46962349  0.27061126  0.47442252    -0.56510
O58         O  0.10976222  0.21530496  0.42549589    -0.59810
C59         C  0.50101479  0.43008128  0.42646455    -0.02180
C60         C  0.24784581  0.42652566  0.32536428    -0.02180
C61         C  0.18071551  0.43350920  0.34836139     0.00150
C62         C  0.17782346  0.45356860  0.38532621    -0.11720
C63         C  0.11678946  0.45961538  0.40472614     0.02390
C64         C  0.06109533  0.43751256  0.39618540     0.00060
C65         C  0.06145463  0.42191107  0.35608162    -0.11660
C66         C  0.11797530  0.42142298  0.33158093     0.02270
H67         H  0.22184960  0.46682831  0.39754572     0.15250
H68         H  0.01624049  0.41124422  0.34206220     0.15250
C69         C  0.10927932  0.40535247  0.29085110     0.36900
C70         C  0.10956432  0.49262349  0.42369569     0.36810
N71         N  0.09975880  0.39197932  0.25872612    -0.43440
N72         N  0.10404414  0.51941552  0.43793479    -0.43440
C73         C  0.31185153  0.43370420  0.35313193     0.00150
C74         C  0.31432010  0.41711350  0.39008214    -0.11720
C75         C  0.37230919  0.41567306  0.41411775     0.02390
C76         C  0.43277813  0.43157225  0.40213749     0.00060
C77         C  0.42745575  0.45246681  0.36910573    -0.11660
C78         C  0.37128166  0.45188262  0.34307374     0.02270
H79         H  0.27010327  0.40407679  0.40003262     0.15250
H80         H  0.46942266  0.46845018  0.36188980     0.15250
C81         C  0.38191884  0.46878858  0.30571528     0.36900
C82         C  0.36478624  0.39924898  0.45210635     0.36810
N83         N  0.39421114  0.48300761  0.27672261    -0.43440
N84         N  0.35509497  0.38594157  0.48213546    -0.43440
C85         C  0.50706982  0.39301880  0.44021487     0.00150
C86         C  0.00273907  0.36751592  0.40839583    -0.11720
C87         C  0.00734497  0.33394404  0.41526569     0.02390
C88         C  0.51457417  0.32361207  0.45546541     0.00060
C89         C  0.51432713  0.34732144  0.48829487    -0.11660
C90         C  0.50864176  0.38145831  0.48164774     0.02270
H91         H  0.98975096  0.37291621  0.37755397     0.15250
H92         H  0.51573311  0.33892091  0.51940954     0.15250
C93         C  0.49352792  0.40115926  0.51864682     0.36900
C94         C  0.00005293  0.31041035  0.37997989     0.36810
N95         N  0.48057150  0.41518501  0.54946510    -0.43440
N96         N  0.99436558  0.29212235  0.35125459    -0.43440
C97         C  0.24673897  0.31750416  0.29273712     0.00150
C98         C  0.29317650  0.33844212  0.27458130    -0.11720
C99         C  0.29805950  0.37281468  0.28622997     0.02390
C100        C  0.25092902  0.38783851  0.31354057     0.00060
C101        C  0.21164987  0.36523644  0.33542955    -0.11660
C102        C  0.20942034  0.33111255  0.32564801     0.02270
H103        H  0.32818730  0.32762357  0.25293668     0.15250
H104        H  0.18379390  0.37372566  0.36204965     0.15250
C105        C  0.17530900  0.31032142  0.35386273     0.36900
C106        C  0.35713103  0.39018404  0.27368962     0.36810
N107        N  0.14993971  0.29364998  0.37717275    -0.43440
N108        N  0.40760973  0.40176670  0.26439968    -0.43440
C109        C  0.24633126  0.05498573  0.31461450     0.00150
C110        C  0.23769072  0.06128856  0.27217151    -0.11720
C111        C  0.23735769  0.09388527  0.25851466     0.02390
C112        C  0.24348517  0.12107709  0.28731320     0.00060
C113        C  0.24432204  0.11538403  0.32926225    -0.11660
C114        C  0.24478077  0.08331700  0.34322371     0.02270
H115        H  0.23175180  0.04106766  0.24898872     0.15250
H116        H  0.24675640  0.13654701  0.35163768     0.15250
C117        C  0.24991641  0.08130608  0.38737935     0.36900
C118        C  0.23245409  0.09883447  0.21503201     0.36810
N119        N  0.25508655  0.08087308  0.42284403    -0.43440
N120        N  0.22847194  0.10281669  0.18013447    -0.43440
C121        C  0.01261668  0.05979377  0.45284866     0.00150
C122        C  0.06928184  0.08100052  0.44916127    -0.11720
C123        C  0.06826407  0.11505314  0.46023911     0.02390
C124        C  0.00914524  0.12947762  0.47438251     0.00060
C125        C  0.45354160  0.10879858  0.48043020    -0.11660
C126        C  0.45501432  0.07440031  0.47102715     0.02270
H127        H  0.11428360  0.07206318  0.43556907     0.15250
H128        H  0.40780399  0.11978582  0.49113982     0.15250
C129        C  0.39620072  0.05484155  0.48015264     0.36900
C130        C  0.12697550  0.13505716  0.45228911     0.36810
N131        N  0.34913625  0.03927451  0.48766470    -0.43440
N132        N  0.17431293  0.15074944  0.44571935    -0.43440
C133        C  0.19265666  0.01273498  0.35686838     0.00150
C134        C  0.19655636  0.01113338  0.40024536    -0.11720
C135        C  0.14031778  0.01186288  0.42559806     0.02390
C136        C  0.07490538  0.01427680  0.40854209     0.00060
C137        C  0.07080879  0.01051971  0.36491293    -0.11660
C138        C  0.12692971  0.01232573  0.33976030     0.02270
H139        H  0.24411628  0.01237542  0.41598921     0.15250
H140        H  0.02339491  0.00791183  0.34901657     0.15250
C141        C  0.11382384  0.01488041  0.29621680     0.36900
C142        C  0.15409481  0.01197611  0.46929154     0.36810
N143        N  0.10187125  0.01672544  0.26150620    -0.43440
N144        N  0.16866056  0.01160814  0.50382798    -0.43440
C145        C  0.32422636  0.01797904  0.35564719     0.00150
C146        C  0.37230957  0.04419139  0.35513325    -0.11720
C147        C  0.43226804  0.04467036  0.37755807     0.02390
C148        C  0.44612606  0.01970878  0.40597589     0.00060
C149        C  0.39828865  0.99299123  0.40575159    -0.11660
C150        C  0.34250697  0.99056057  0.37859122     0.02270
H151        H  0.36539421  0.06448187  0.33533641     0.15250
H152        H  0.40232603  0.97331248  0.42638695     0.15250
C153        C  0.30328839  0.95985478  0.37655857     0.36900
C154        C  0.47912875  0.07121793  0.36883487     0.36810
N155        N  0.27237409  0.93511653  0.37519940    -0.43440
N156        N  0.51578472  0.09245926  0.36076955    -0.43440
C157        C  0.23042198  0.49115340  0.21780531     0.00150
C158        C  0.24478829  0.50379136  0.25904865    -0.11720
C159        C  0.24452154  0.48443654  0.29333076     0.02390
C160        C  0.24311588  0.44922351  0.28817526     0.00060
C161        C  0.22865373  0.43586266  0.24825584    -0.11660
C162        C  0.21732459  0.45565165  0.21459162     0.02270
H163        H  0.25929060  0.52933178  0.26659420     0.15250
H164        H  0.22303978  0.40917209  0.24301792     0.15250
C165        C  0.19622311  0.43556757  0.17868890     0.36900
C166        C  0.25432692  0.50247327  0.33289783     0.36810
N167        N  0.17874472  0.41510001  0.15406963    -0.43440
N168        N  0.26342286  0.51831384  0.36344155    -0.43440
C169        C  0.50067397  0.45595935  0.46425381     0.00150
C170        C  0.44284733  0.47388660  0.47340068    -0.11720
C171        C  0.43167924  0.48620572  0.01328605     0.02390
C172        C  0.48591344  0.49674883  0.03959046     0.00060
C173        C  0.04850512  0.48458005  0.02665947    -0.11660
C174        C  0.05437731  0.46132145  0.49311335     0.02270
H175        H  0.39959994  0.47260908  0.45332457     0.15250
H176        H  0.09355668  0.49105693  0.04358048     0.15330
C177        C  0.11485189  0.44259401  0.49065875     0.36900
C178        C  0.37176068  0.47171681  0.02897129     0.36810
N179        N  0.16309729  0.42758724  0.48892628    -0.43440
N180        N  0.32424627  0.45835787  0.03994047    -0.43440
C181        C  0.29086550  0.50895123  0.14907649     0.00150
C182        C  0.29127030  0.52738794  0.11345558    -0.11720
C183        C  0.34523373  0.52779341  0.08662166     0.02390
C184        C  0.40869618  0.51563425  0.09903308     0.00060
C185        C  0.40480063  0.49290497  0.13023678    -0.11660
C186        C  0.34717781  0.48840786  0.15380212     0.02270
H187        H  0.24837688  0.54162458  0.10583892     0.15250
H188        H  0.44734121  0.47823035  0.13687115     0.15250
C189        C  0.35152674  0.46248958  0.18186638     0.36900
C190        C  0.33182858  0.54036168  0.04647616     0.36810
N191        N  0.35910972  0.44021348  0.20206142    -0.43440
N192        N  0.32046505  0.55018968  0.01443882    -0.43440
C193        C  0.16438560  0.51707705  0.15541713     0.00150
C194        C  0.12998305  0.54713762  0.15105737    -0.11720
C195        C  0.06634139  0.54861333  0.13333906     0.02390
C196        C  0.03679820  0.52045218  0.11104851     0.00060
C197        C  0.06951802  0.49023377  0.11615512    -0.11660
C198        C  0.13599698  0.48994389  0.13073775     0.02270
H199        H  0.15344464  0.57108949  0.15866049     0.15250
H200        H  0.04861351  0.46742420  0.10132078     0.15250
C201        C  0.17791651  0.46924089  0.10533014     0.36900
C202        C  0.03254401  0.57932082  0.14224002     0.36810
N203        N  0.20938218  0.45231549  0.08381496    -0.43440
N204        N  0.00757251  0.60421911  0.15125220    -0.43440
C205        C  0.98250186  0.62386228  0.02834695     0.00150
C206        C  0.03533651  0.60257553  0.02023718    -0.11720
C207        C  0.03684146  0.57063386  0.03596089     0.02390
C208        C  0.98336020  0.55868385  0.06036022     0.00060
C209        C  0.43718274  0.58297236  0.07256064    -0.11660
C210        C  0.43127655  0.61272860  0.05358233     0.02270
H211        H  0.07815278  0.61193583  0.00407479     0.15250
H212        H  0.40558422  0.57972067  0.09861406     0.15250
C213        C  0.37331402  0.63186012  0.06355029     0.36900
C214        C  0.10004346  0.55479951  0.03285979     0.36810
N215        N  0.32541151  0.64600266  0.07141863    -0.43440
N216        N  0.15284803  0.54419058  0.03038761    -0.43440
C217        C  0.25873493  0.62195120  0.22809763     0.00150
C218        C  0.31459904  0.60482819  0.21411413    -0.11720
C219        C  0.31111288  0.57059794  0.20292017     0.02390
C220        C  0.24853882  0.55276247  0.20195913     0.00060
C221        C  0.19817928  0.56861645  0.22586922    -0.11660
C222        C  0.20123481  0.60294809  0.23673602     0.02270
H223        H  0.36153245  0.61837774  0.21117758     0.15250
H224        H  0.15296353  0.55462053  0.23218549     0.15250
C225        C  0.14322625  0.61807931  0.25444351     0.36900
C226        C  0.37431329  0.55468479  0.20069988     0.36810
N227        N  0.09644923  0.63011655  0.26844126    -0.43440
N228        N  0.42653254  0.54334129  0.20129030    -0.43440
C229        C  0.26168854  0.94852536  0.21813902     0.00150
C230        C  0.31142608  0.97363547  0.22603304    -0.11720
C231        C  0.31312012  0.99489051  0.26193378     0.02390
C232        C  0.26333429  0.99235378  0.29260128     0.00060
C233        C  0.21941159  0.96441235  0.28740092    -0.11660
C234        C  0.21601210  0.94385963  0.25088898     0.02270
H235        H  0.34998188  0.97758631  0.20399173     0.15250
H236        H  0.18519488  0.95869498  0.31148698     0.15250
C237        C  0.16318424  0.91862866  0.24832398     0.36900
C238        C  0.36579555  0.02007881  0.26425111     0.36810
N239        N  0.12042950  0.89871644  0.24661517    -0.43440
N240        N  0.40880134  0.03979424  0.26413541    -0.43440
C241        C  0.25151279  0.88809673  0.18885115     0.00150
C242        C  0.20392979  0.86665795  0.16748998    -0.11720
C243        C  0.19614683  0.83306008  0.17509035     0.02390
C244        C  0.23685063  0.81871687  0.20457643     0.00060
C245        C  0.27966116  0.83969430  0.22914206    -0.11660
C246        C  0.28645477  0.87393867  0.22240888     0.02270
H247        H  0.17164984  0.87523243  0.14394152     0.15250
H248        H  0.31051274  0.82904195  0.25232685     0.15250
C249        C  0.33265865  0.89309829  0.24955663     0.36900
C250        C  0.14599459  0.81365179  0.15110273     0.36810
N251        N  0.36987948  0.90810005  0.27143427    -0.43440
N252        N  0.10588915  0.79826848  0.13180687    -0.43440
C253        C  0.00721146  0.95076551  0.03615338     0.00150
C254        C  0.51743800  0.98496017  0.04573421    -0.11720
C255        C  0.51787576  0.00875064  0.51585325     0.02390
C256        C  0.00939731  0.99895325  0.47256166     0.00060
C257        C  0.00558199  0.96446099  0.46306043    -0.11660
C258        C  0.99735358  0.94113400  0.99322442     0.02270
H259        H  0.52555361  0.99341756  0.07774718     0.15250
H260        H  0.00492422  0.95555610  0.43088926     0.15250
C261        C  0.97315041  0.90876294  0.97723121     0.36900
C262        C  0.53605382  0.04187393  0.53260261     0.36810
N263        N  0.95348148  0.88329392  0.96289621    -0.43440
N264        N  0.55148028  0.06786991  0.54738587    -0.43440
C265        C  0.00446085  0.81844637  0.03611174     0.00150
C266        C  0.06249529  0.83702427  0.02968420    -0.11720
C267        C  0.06452032  0.87187634  0.03521874     0.02390
C268        C  0.01101618  0.88905980  0.05545063     0.00060
C269        C  0.45057302  0.86987943  0.05617287    -0.11660
C270        C  0.44685012  0.83550425  0.04745220     0.02270
H271        H  0.10538812  0.82428217  0.01733865     0.15250
H272        H  0.40464174  0.88165375  0.06362295     0.15250
C273        C  0.38344436  0.81855822  0.05256820     0.36900
C274        C  0.11223284  0.88717788  0.00909964     0.36810
N275        N  0.33241318  0.80528578  0.05678818    -0.43440
N276        N  0.15025217  0.89790397  0.98658791    -0.43440
C277        C  0.20041084  0.93478785  0.14773745     0.00150
C278        C  0.14356031  0.95109776  0.16340803    -0.11720
C279        C  0.08271051  0.95122213  0.14085437     0.02390
C280        C  0.07773045  0.93667348  0.09949944     0.00060
C281        C  0.13969561  0.93283737  0.08140337    -0.11660
C282        C  0.19660385  0.92609065  0.10447227     0.02270
H283        H  0.14473079  0.96367226  0.19355077     0.15250
H284        H  0.14420418  0.93554263  0.04910115     0.15250
C285        C  0.24612743  0.90751876  0.08227248     0.36900
C286        C  0.03057285  0.97029315  0.16009016     0.36810
N287        N  0.28356842  0.89208181  0.06313173    -0.43440
N288        N  0.48993203  0.98593548  0.17615559    -0.43440
C289        C  0.44986576  0.93090109  0.10303268     0.00150
C290        C  0.39939470  0.95453757  0.09921127    -0.11720
C291        C  0.34365999  0.95582849  0.12562115     0.02390
C292        C  0.32974229  0.92984464  0.15287224     0.00060
C293        C  0.38162325  0.90718983  0.15702774    -0.11660
C294        C  0.44149137  0.90907579  0.13568507     0.02270
H295        H  0.40301204  0.97279769  0.07628229     0.15250
H296        H  0.37756821  0.88704917  0.17690072     0.15250
C297        C  0.49239820  0.88639247  0.14684333     0.36900
C298        C  0.30126311  0.98407210  0.12329908     0.36810
N299        N  0.53270999  0.86823023  0.15622530    -0.43440
N300        N  0.26760817  0.00681479  0.12147636    -0.43440
C301        C  0.51143445  0.92708939  0.57298084    -0.02180
C302        C  0.26115427  0.92562705  0.67682404    -0.02180
In303      In  0.25448399  0.71628701  0.68987775     1.36870
C304        C  0.25929477  0.65887756  0.72567404     0.77890
O305        O  0.14591609  0.71429694  0.67953360    -0.60560
O306        O  0.21048323  0.69983034  0.62984621    -0.51470
C307        C  0.24257613  0.78190717  0.70354560     0.70550
O308        O  0.25905767  0.76437180  0.73318605    -0.46330
C309        C  0.35558661  0.71753231  0.64242206     0.75260
O310        O  0.20722008  0.67564549  0.72576221    -0.58190
O311        O  0.30077701  0.70380577  0.63141014    -0.48280
O312        O  0.31086580  0.67503491  0.71625749    -0.54620
C313        C  0.15271266  0.70640494  0.64156013     0.85440
O314        O  0.23283962  0.76554215  0.67009637    -0.56510
O315        O  0.36075078  0.72908715  0.67946475    -0.59810
In316      In  0.00427370  0.72025352  0.56051071     1.36870
C317        C  0.99243995  0.66015764  0.52453896     0.77890
O318        O  0.10864179  0.70774946  0.57385020    -0.60560
O319        O  0.04172365  0.71540117  0.62397793    -0.51470
C320        C  0.00701248  0.78171703  0.53524834     0.70550
O321        O  0.55925938  0.76690586  0.54331620    -0.46330
C322        C  0.40821698  0.71975908  0.61338123     0.75260
O323        O  0.94486611  0.67977358  0.52565695    -0.58190
O324        O  0.46447169  0.73266142  0.62299081    -0.48280
O325        O  0.54861842  0.67424096  0.53048300    -0.54620
C326        C  0.09938864  0.70889639  0.61230435     0.85440
O327        O  0.95628061  0.76294616  0.53156540    -0.56510
O328        O  0.40095067  0.70827171  0.57668393    -0.59810
C329        C  0.97832963  0.52271585  0.57773141    -0.02180
C330        C  0.23370704  0.51626075  0.68100365    -0.02180
C331        C  0.01100406  0.02273795  0.93532042    -0.02180
C332        C  0.25670526  0.01899763  0.82994758    -0.02180
In333      In  0.24971144  0.21870565  0.80717972     1.36870
C334        C  0.24599340  0.28078386  0.78447031     0.77890
O335        O  0.14202706  0.21522031  0.81998150    -0.60560
O336        O  0.21188814  0.21066504  0.86949080    -0.51470
C337        C  0.25149943  0.15624268  0.77741927     0.70550
O338        O  0.20294010  0.17404343  0.76983505    -0.46330
C339        C  0.34785060  0.22699321  0.85977418     0.75260
O340        O  0.29765390  0.26424517  0.77937217    -0.58190
O341        O  0.28830486  0.22788323  0.87119102    -0.48280
O342        O  0.19465643  0.26326911  0.78977818    -0.54620
C343        C  0.15211715  0.21194298  0.85792610     0.85440
O344        O  0.30321745  0.17241259  0.78892799    -0.56510
O345        O  0.35696747  0.22322705  0.82138949    -0.59810
In346      In  0.50356682  0.22398746  0.93849268     1.36870
C347        C  0.99990661  0.16547953  0.97136889     0.77890
O348        O  0.39521057  0.23066311  0.92750906    -0.60560
O349        O  0.46061409  0.22373015  0.87637379    -0.51470
C350        C  0.51766367  0.28776704  0.96157977     0.70550
O351        O  0.06320262  0.27118375  0.94556054    -0.46330
C352        C  0.09918997  0.21298595  0.88702470     0.75260
O353        O  0.54315437  0.18757739  0.98254692    -0.58190
O354        O  0.03962547  0.21458227  0.87527942    -0.48280
O355        O  0.95245519  0.17571261  0.95066081    -0.54620
C356        C  0.40239484  0.22780178  0.88882811     0.85440
O357        O  0.46962102  0.27061230  0.97442243    -0.56510
O358        O  0.10975837  0.21530558  0.92549567    -0.59810
C359        C  0.50101349  0.43008208  0.92646441    -0.02180
C360        C  0.24784445  0.42652618  0.82536421    -0.02180
C361        C  0.18071420  0.43350991  0.84836128     0.00150
C362        C  0.17782223  0.45356929  0.88532612    -0.11720
C363        C  0.11678825  0.45961612  0.90472604     0.02390
C364        C  0.06109400  0.43751340  0.89618524     0.00060
C365        C  0.06145326  0.42191198  0.85608141    -0.11660
C366        C  0.11797395  0.42142382  0.83158075     0.02270
H367        H  0.22184844  0.46682892  0.89754566     0.15250
H368        H  0.01623909  0.41124519  0.84206195     0.15250
C369        C  0.10927801  0.40535336  0.79085089     0.36900
C370        C  0.10956327  0.49262422  0.92369571     0.36810
N371        N  0.09975756  0.39198027  0.75872587    -0.43440
N372        N  0.10404324  0.51941622  0.93793490    -0.43440
C373        C  0.31185022  0.43370474  0.85313180     0.00150
C374        C  0.31431880  0.41711414  0.89008208    -0.11720
C375        C  0.37230789  0.41567379  0.91411770     0.02390
C376        C  0.43277677  0.43157304  0.90213743     0.00060
C377        C  0.42745432  0.45246754  0.86910562    -0.11660
C378        C  0.37128033  0.45188316  0.84307355     0.02270
H379        H  0.27010200  0.40407743  0.90003259     0.15250
H380        H  0.46942117  0.46845094  0.86188967     0.15250
C381        C  0.38191770  0.46878884  0.80571490     0.36900
C382        C  0.36478499  0.39924974  0.95210632     0.36810
N383        N  0.39421019  0.48300763  0.77672208    -0.43440
N384        N  0.35509373  0.38594234  0.98213544    -0.43440
C385        C  0.50706854  0.39301959  0.94021463     0.00150
C386        C  0.00273771  0.36751678  0.90839550    -0.11720
C387        C  0.00734331  0.33394488  0.91526527     0.02390
C388        C  0.51457232  0.32361285  0.95546496     0.00060
C389        C  0.51432550  0.34732215  0.98829448    -0.11660
C390        C  0.50864043  0.38145903  0.98164746     0.02270
H391        H  0.98974967  0.37291713  0.87755365     0.15250
H392        H  0.51573136  0.33892153  0.01940913     0.15250
C393        C  0.49352677  0.40115990  0.01864664     0.36900
C394        C  0.00005102  0.31041122  0.87997944     0.36810
N395        N  0.48057052  0.41518554  0.04946502    -0.43440
N396        N  0.99436350  0.29212318  0.85125419    -0.43440
C397        C  0.24673606  0.31750469  0.79273712     0.00150
C398        C  0.29317391  0.33844247  0.77458130    -0.11720
C399        C  0.29805759  0.37281499  0.78623008     0.02390
C400        C  0.25092734  0.38783900  0.81354069     0.00060
C401        C  0.21164797  0.36523708  0.83542974    -0.11660
C402        C  0.20941794  0.33111319  0.82564820     0.02270
H403        H  0.32818445  0.32762380  0.75293659     0.15250
H404        H  0.18379222  0.37372641  0.86204989     0.15250
C405        C  0.17530677  0.31032214  0.85386308     0.36900
C406        C  0.35712940  0.39018414  0.77368978     0.36810
N407        N  0.14993771  0.29365070  0.87717319    -0.43440
N408        N  0.40760827  0.40176664  0.76439989    -0.43440
C409        C  0.24632919  0.05498652  0.81461474     0.00150
C410        C  0.23768855  0.06128918  0.77217170    -0.11720
C411        C  0.23735505  0.09388583  0.75851467     0.02390
C412        C  0.24348219  0.12107775  0.78731308     0.00060
C413        C  0.24431921  0.11538484  0.82926215    -0.11660
C414        C  0.24477842  0.08331789  0.84322379     0.02270
H415        H  0.23174982  0.04106820  0.74898901     0.15250
H416        H  0.24675333  0.13654790  0.85163748     0.15250
C417        C  0.24991411  0.08130720  0.88737947     0.36900
C418        C  0.23245125  0.09883487  0.71503198     0.36810
N419        N  0.25508422  0.08087445  0.92284417    -0.43440
N420        N  0.22846893  0.10281697  0.68013442    -0.43440
C421        C  0.01261389  0.05979519  0.95284931     0.00150
C422        C  0.06927898  0.08100207  0.94916251    -0.11720
C423        C  0.06826083  0.11505462  0.96024057     0.02390
C424        C  0.00914154  0.12947895  0.97438342     0.00060
C425        C  0.45353783  0.10879979  0.98043050    -0.11660
C426        C  0.45501097  0.07440155  0.97102733     0.02270
H427        H  0.11428109  0.07206492  0.93557060     0.15250
H428        H  0.40779987  0.11978692  0.99113974     0.15250
C429        C  0.39619732  0.05484264  0.98015232     0.36900
C430        C  0.12697251  0.13505871  0.95229130     0.36810
N431        N  0.34913281  0.03927549  0.98766400    -0.43440
N432        N  0.17431018  0.15075101  0.94572213    -0.43440
C433        C  0.19265472  0.01273601  0.85686884     0.00150
C434        C  0.19655443  0.01113474  0.90024585    -0.11720
C435        C  0.14031587  0.01186490  0.92559854     0.02390
C436        C  0.07490353  0.01427875  0.90854244     0.00060
C437        C  0.07080690  0.01052127  0.86491332    -0.11660
C438        C  0.12692782  0.01232687  0.83976070     0.02270
H439        H  0.24411437  0.01237668  0.91598968     0.15250
H440        H  0.02339305  0.00791334  0.84901695     0.15250
C441        C  0.11382197  0.01488123  0.79621715     0.36900
C442        C  0.15409277  0.01197917  0.96929213     0.36810
N443        N  0.10186934  0.01672600  0.76150650    -0.43440
N444        N  0.16865812  0.01161221  0.00382873    -0.43440
C445        C  0.32422441  0.01798000  0.85564769     0.00150
C446        C  0.37230740  0.04419244  0.85513365    -0.11720
C447        C  0.43226582  0.04467162  0.87755848     0.02390
C448        C  0.44612425  0.01971003  0.90597617     0.00060
C449        C  0.39828757  0.99299218  0.90575175    -0.11660
C450        C  0.34250533  0.99056155  0.87859175     0.02270
H451        H  0.36539187  0.06448287  0.83533675     0.15250
H452        H  0.40232642  0.97331315  0.92638668     0.15250
C453        C  0.30328672  0.95985579  0.87655934     0.36900
C454        C  0.47912617  0.07121939  0.86883545     0.36810
N455        N  0.27237233  0.93511758  0.87520034    -0.43440
N456        N  0.51578189  0.09246088  0.86077032    -0.43440
C457        C  0.23042311  0.49115355  0.71780478     0.00150
C458        C  0.24478826  0.50379164  0.75904820    -0.11720
C459        C  0.24452062  0.48443693  0.79333040     0.02390
C460        C  0.24311479  0.44922390  0.78817507     0.00060
C461        C  0.22865339  0.43586294  0.74825561    -0.11660
C462        C  0.21732575  0.45565180  0.71459110     0.02270
H463        H  0.25929048  0.52933205  0.76659378     0.15250
H464        H  0.22303921  0.40917237  0.74301780     0.15250
C465        C  0.19622691  0.43556751  0.67868797     0.36900
C466        C  0.25432552  0.50247376  0.83289745     0.36810
N467        N  0.17875088  0.41509970  0.65406839    -0.43440
N468        N  0.26342110  0.51831441  0.86344115    -0.43440
C469        C  0.50067267  0.45596006  0.96425376     0.00150
C470        C  0.44284590  0.47388716  0.97340082    -0.11720
C471        C  0.43168070  0.48620548  0.51328579     0.02390
C472        C  0.48591492  0.49674859  0.53959021     0.00060
C473        C  0.04850649  0.48457956  0.52665938    -0.11660
C474        C  0.05437605  0.46132211  0.99311329     0.02270
H475        H  0.39959848  0.47260968  0.95332474     0.15250
H476        H  0.09355804  0.49105642  0.54358039     0.15330
C477        C  0.11485068  0.44259471  0.99065861     0.36900
C478        C  0.37176182  0.47171692  0.52897102     0.36810
N479        N  0.16309612  0.42758798  0.98892610    -0.43440
N480        N  0.32424714  0.45835821  0.53994015    -0.43440
C481        C  0.29086687  0.50895114  0.64907583     0.00150
C482        C  0.29127186  0.52738802  0.61345506    -0.11720
C483        C  0.34523545  0.52779363  0.58662128     0.02390
C484        C  0.40869773  0.51563429  0.59903268     0.00060
C485        C  0.40480186  0.49290476  0.63023609    -0.11660
C486        C  0.34717897  0.48840763  0.65380136     0.02270
H487        H  0.24837852  0.54162474  0.60583847     0.15250
H488        H  0.44734227  0.47823000  0.63687035     0.15250
C489        C  0.35152780  0.46248936  0.68186566     0.36900
C490        C  0.33183056  0.54036206  0.54647584     0.36810
N491        N  0.35911062  0.44021329  0.70206077    -0.43440
N492        N  0.32046725  0.55019019  0.51443854    -0.43440
C493        C  0.16438713  0.51707712  0.65541668     0.00150
C494        C  0.12998445  0.54713765  0.65105698    -0.11720
C495        C  0.06634262  0.54861324  0.63333889     0.02390
C496        C  0.03679954  0.52045207  0.61104832     0.00060
C497        C  0.06951931  0.49023368  0.61615505    -0.11660
C498        C  0.13599833  0.48994386  0.63073752     0.02270
H499        H  0.15344598  0.57108954  0.65865995     0.15250
H500        H  0.04861475  0.46742409  0.60132080     0.15250
C501        C  0.17791760  0.46924101  0.60532960     0.36900
C502        C  0.03254479  0.57932054  0.64224025     0.36810
N503        N  0.20938293  0.45231575  0.58381404    -0.43440
N504        N  0.00757287  0.60421865  0.65125277    -0.43440
C505        C  0.98250599  0.62386244  0.52834713     0.00150
C506        C  0.03533998  0.60257534  0.52023717    -0.11720
C507        C  0.03684407  0.57063358  0.53596069     0.02390
C508        C  0.98336238  0.55868373  0.56035981     0.00060
C509        C  0.43718533  0.58297244  0.57256025    -0.11660
C510        C  0.43128036  0.61272900  0.55358246     0.02270
H511        H  0.07815647  0.61193541  0.50407480     0.15250
H512        H  0.40558649  0.57972077  0.59861352     0.15250
C513        C  0.37331892  0.63186114  0.56355115     0.36900
C514        C  0.10004572  0.55479890  0.53285956     0.36810
N515        N  0.32541735  0.64600427  0.57142013    -0.43440
N516        N  0.15285009  0.54418973  0.53038736    -0.43440
C517        C  0.25873963  0.62195129  0.72809656     0.00150
C518        C  0.31460320  0.60482771  0.71411334    -0.11720
C519        C  0.31111591  0.57059743  0.70291969     0.02390
C520        C  0.24854119  0.55276255  0.70195837     0.00060
C521        C  0.19818205  0.56861707  0.72586824    -0.11660
C522        C  0.20123878  0.60294871  0.73673496     0.02270
H523        H  0.36153718  0.61837680  0.71117696     0.15250
H524        H  0.15296583  0.55462155  0.73218456     0.15250
C525        C  0.14323067  0.61808046  0.75444232     0.36900
C526        C  0.37431573  0.55468366  0.70070014     0.36810
N527        N  0.09645399  0.63011811  0.76843998    -0.43440
N528        N  0.42653452  0.54333968  0.70129115    -0.43440
C529        C  0.26168639  0.94852576  0.71813999     0.00150
C530        C  0.31142388  0.97363595  0.72603380    -0.11720
C531        C  0.31311796  0.99489110  0.76193441     0.02390
C532        C  0.26333216  0.99235449  0.79260193     0.00060
C533        C  0.21940927  0.96441310  0.78740168    -0.11660
C534        C  0.21600965  0.94386031  0.75088980     0.02270
H535        H  0.34997957  0.97758678  0.70399239     0.15250
H536        H  0.18519246  0.95869586  0.81148774     0.15250
C537        C  0.16318146  0.91862953  0.74832468     0.36900
C538        C  0.36579336  0.02007942  0.76425159     0.36810
N539        N  0.12042645  0.89871746  0.74661582    -0.43440
N540        N  0.40879909  0.03979488  0.76413578    -0.43440
C541        C  0.25151142  0.88809685  0.68885288     0.00150
C542        C  0.20392749  0.86665800  0.66749261    -0.11720
C543        C  0.19614504  0.83306015  0.67509304     0.02390
C544        C  0.23685073  0.81871690  0.70457810     0.00060
C545        C  0.27966157  0.83969446  0.72914338    -0.11660
C546        C  0.28645388  0.87393895  0.72241052     0.02270
H547        H  0.17164591  0.87523242  0.64394500     0.15250
H548        H  0.31051397  0.82904220  0.75232784     0.15250
C549        C  0.33265639  0.89309894  0.74955882     0.36900
C550        C  0.14599109  0.81365202  0.65110664     0.36810
N551        N  0.36987607  0.90810100  0.77143693    -0.43440
N552        N  0.10588423  0.79826885  0.63181180    -0.43440
C553        C  0.00720839  0.95076552  0.53615471     0.00150
C554        C  0.51743906  0.98496002  0.54573481    -0.11720
C555        C  0.51787278  0.00875128  0.01585328     0.02390
C556        C  0.00939586  0.99895439  0.97256151     0.00060
C557        C  0.00558468  0.96446224  0.96305934    -0.11660
C558        C  0.99734555  0.94113387  0.49322635     0.02270
H559        H  0.52555657  0.99341764  0.57774750     0.15250
H560        H  0.00492817  0.95555810  0.93088789     0.15250
C561        C  0.97312910  0.90876445  0.47723550     0.36900
C562        C  0.53604695  0.04187476  0.03260359     0.36810
N563        N  0.95344928  0.88329663  0.46290290    -0.43440
N564        N  0.55147033  0.06787089  0.04738766    -0.43440
C565        C  0.00446454  0.81844625  0.53611219     0.00150
C566        C  0.06249435  0.83702609  0.52967914    -0.11720
C567        C  0.06451508  0.87187821  0.53521390     0.02390
C568        C  0.01101361  0.88905968  0.55545144     0.00060
C569        C  0.45057373  0.86987714  0.55617932    -0.11660
C570        C  0.44685426  0.83550193  0.54745883     0.02270
H571        H  0.10538581  0.82428549  0.51732918     0.15250
H572        H  0.40464204  0.88164939  0.56363376     0.15250
C573        C  0.38345332  0.81855334  0.55258254     0.36900
C574        C  0.11221894  0.88718206  0.50909105     0.36810
N575        N  0.33242615  0.80527878  0.55680887    -0.43440
N576        N  0.15023120  0.89791070  0.48657685    -0.43440
C577        C  0.20040912  0.93478740  0.64773843     0.00150
C578        C  0.14355939  0.95109855  0.66340815    -0.11720
C579        C  0.08270973  0.95122303  0.64085430     0.02390
C580        C  0.07772875  0.93667291  0.59950007     0.00060
C581        C  0.13969375  0.93283439  0.58140437    -0.11660
C582        C  0.19660185  0.92608848  0.60447371     0.02270
H583        H  0.14473042  0.96367386  0.69355045     0.15250
H584        H  0.14420366  0.93553857  0.54910226     0.15250
C585        C  0.24612587  0.90751616  0.58227474     0.36900
C586        C  0.03057289  0.97029526  0.66008914     0.36810
N587        N  0.28356741  0.89207903  0.56313463    -0.43440
N588        N  0.48993258  0.98593850  0.67615370    -0.43440
C589        C  0.44986383  0.93090151  0.60303415     0.00150
C590        C  0.39939209  0.95453747  0.59921187    -0.11720
C591        C  0.34365708  0.95582836  0.62562152     0.02390
C592        C  0.32974040  0.92984504  0.65287356     0.00060
C593        C  0.38162275  0.90719127  0.65703052    -0.11660
C594        C  0.44149085  0.90907736  0.63568787     0.02270
H595        H  0.40300926  0.97279716  0.57628228     0.15250
H596        H  0.37756874  0.88705126  0.67690447     0.15250
C597        C  0.49239838  0.88639466  0.64684685     0.36900
C598        C  0.30125917  0.98407149  0.62329841     0.36810
N599        N  0.53271054  0.86823283  0.65622941    -0.43440
N600        N  0.26760340  0.00681379  0.62147483    -0.43440
C601        C  0.01143710  0.92708945  0.07297971    -0.02180
C602        C  0.76115610  0.92562690  0.17682275    -0.02180
In603      In  0.75447876  0.71628659  0.18987848     1.36870
C604        C  0.75928864  0.65887744  0.22567540     0.77890
O605        O  0.64591098  0.71429938  0.17953449    -0.60560
O606        O  0.71047665  0.69983022  0.12984732    -0.51470
C607        C  0.74257520  0.78190713  0.20354451     0.70550
O608        O  0.75904963  0.76437160  0.23318633    -0.46330
C609        C  0.85558140  0.71752933  0.14242310     0.75260
O610        O  0.70721286  0.67564447  0.22576094    -0.58190
O611        O  0.80077169  0.70380269  0.13141154    -0.48280
O612        O  0.81086009  0.67503565  0.21626139    -0.54620
C613        C  0.65270686  0.70640657  0.14156116     0.85440
O614        O  0.73284451  0.76554222  0.17009463    -0.56510
O615        O  0.86074576  0.72908499  0.17946544    -0.59810
In616      In  0.50426718  0.72025338  0.06051123     1.36870
C617        C  0.49243531  0.66015752  0.02453912     0.77890
O618        O  0.60863518  0.70774905  0.07385116    -0.60560
O619        O  0.54171887  0.71540494  0.12397891    -0.51470
C620        C  0.50700485  0.78171696  0.03524872     0.70550
O621        O  0.05925194  0.76690415  0.04331114    -0.46330
C622        C  0.90821138  0.71975621  0.11338215     0.75260
O623        O  0.44486112  0.67977329  0.02565635    -0.58190
O624        O  0.96446551  0.73265927  0.12299167    -0.48280
O625        O  0.04861315  0.67424098  0.03048445    -0.54620
C626        C  0.59938295  0.70889826  0.11230541     0.85440
O627        O  0.45627052  0.76294749  0.03157134    -0.56510
O628        O  0.90094506  0.70826912  0.07668470    -0.59810
C629        C  0.47832805  0.52271596  0.07773174    -0.02180
C630        C  0.73370541  0.51626068  0.18100424    -0.02180
C631        C  0.51100613  0.02273641  0.43532010    -0.02180
C632        C  0.75670724  0.01899675  0.32994709    -0.02180
In633      In  0.74971536  0.21870506  0.30717987     1.36870
C634        C  0.74599701  0.28078330  0.28447042     0.77890
O635        O  0.64203105  0.21522031  0.31998177    -0.60560
O636        O  0.71189207  0.21066457  0.36949099    -0.51470
C637        C  0.75150273  0.15624203  0.27741950     0.70550
O638        O  0.70294360  0.17404290  0.26983530    -0.46330
C639        C  0.84785449  0.22699246  0.35977430     0.75260
O640        O  0.79765787  0.26424481  0.27937278    -0.58190
O641        O  0.78830875  0.22788217  0.37119117    -0.48280
O642        O  0.69466015  0.26326836  0.28977791    -0.54620
C643        C  0.65212112  0.21194282  0.35792633     0.85440
O644        O  0.80322091  0.17241182  0.28892817    -0.56510
O645        O  0.85697139  0.22322672  0.32138957    -0.59810
In646      In  0.00357053  0.22398665  0.43849279     1.36870
C647        C  0.49991049  0.16547822  0.47136807     0.77890
O648        O  0.89521424  0.23066188  0.42750919    -0.60560
O649        O  0.96061802  0.22372966  0.37637389    -0.51470
C650        C  0.01766610  0.28776626  0.46158030     0.70550
O651        O  0.56320578  0.27118317  0.44556145    -0.46330
C652        C  0.59919396  0.21298578  0.38702489     0.75260
O653        O  0.04315768  0.18757615  0.48254681    -0.58190
O654        O  0.53962956  0.21458239  0.37527956    -0.48280
O655        O  0.45245956  0.17571135  0.45065962    -0.54620
C656        C  0.90239867  0.22780095  0.38882823     0.85440
O657        O  0.96962343  0.27061127  0.47442250    -0.56510
O658        O  0.60976224  0.21530496  0.42549588    -0.59810
C659        C  0.00101479  0.43008128  0.42646456    -0.02180
C660        C  0.74784582  0.42652564  0.32536428    -0.02180
C661        C  0.68071552  0.43350918  0.34836139     0.00150
C662        C  0.67782346  0.45356859  0.38532619    -0.11720
C663        C  0.61678946  0.45961537  0.40472612     0.02390
C664        C  0.56109533  0.43751255  0.39618539     0.00060
C665        C  0.56145464  0.42191106  0.35608161    -0.11660
C666        C  0.61797531  0.42142296  0.33158092     0.02270
H667        H  0.72184960  0.46682830  0.39754571     0.15250
H668        H  0.51624049  0.41124421  0.34206219     0.15250
C669        C  0.60927933  0.40535243  0.29085110     0.36900
C670        C  0.60956432  0.49262349  0.42369567     0.36810
N671        N  0.59975881  0.39197928  0.25872613    -0.43440
N672        N  0.60404415  0.51941552  0.43793476    -0.43440
C673        C  0.81185154  0.43370418  0.35313194     0.00150
C674        C  0.81432010  0.41711349  0.39008215    -0.11720
C675        C  0.87230919  0.41567307  0.41411777     0.02390
C676        C  0.93277813  0.43157226  0.40213751     0.00060
C677        C  0.92745575  0.45246680  0.36910574    -0.11660
C678        C  0.87128168  0.45188260  0.34307373     0.02270
H679        H  0.77010328  0.40407678  0.40003263     0.15250
H680        H  0.96942266  0.46845017  0.36188980     0.15250
C681        C  0.88191887  0.46878853  0.30571525     0.36900
C682        C  0.86478624  0.39924900  0.45210637     0.36810
N683        N  0.89421118  0.48300753  0.27672257    -0.43440
N684        N  0.85509496  0.38594160  0.48213549    -0.43440
C685        C  0.00706982  0.39301880  0.44021489     0.00150
C686        C  0.50273907  0.36751591  0.40839582    -0.11720
C687        C  0.50734499  0.33394403  0.41526568     0.02390
C688        C  0.01457415  0.32361208  0.45546542     0.00060
C689        C  0.01432711  0.34732145  0.48829488    -0.11660
C690        C  0.00864175  0.38145832  0.48164775     0.02270
H691        H  0.48975095  0.37291620  0.37755396     0.15250
H692        H  0.01573309  0.33892091  0.51940955     0.15250
C693        C  0.99352790  0.40115926  0.51864684     0.36900
C694        C  0.50005295  0.31041034  0.37997988     0.36810
N695        N  0.98057147  0.41518502  0.54946511    -0.43440
N696        N  0.49436561  0.29212234  0.35125458    -0.43440
C697        C  0.74673897  0.31750415  0.29273711     0.00150
C698        C  0.79317648  0.33844210  0.27458129    -0.11720
C699        C  0.79805949  0.37281466  0.28622995     0.02390
C700        C  0.75092903  0.38783849  0.31354057     0.00060
C701        C  0.71164989  0.36523642  0.33542955    -0.11660
C702        C  0.70942035  0.33111254  0.32564802     0.02270
H703        H  0.82818727  0.32762356  0.25293666     0.15250
H704        H  0.68379394  0.37372565  0.36204966     0.15250
C705        C  0.67530903  0.31032141  0.35386274     0.36900
C706        C  0.85713101  0.39018402  0.27368960     0.36810
N707        N  0.64993974  0.29364996  0.37717276    -0.43440
N708        N  0.90760971  0.40176667  0.26439963    -0.43440
C709        C  0.74633126  0.05498571  0.31461448     0.00150
C710        C  0.73769073  0.06128854  0.27217149    -0.11720
C711        C  0.73735770  0.09388525  0.25851464     0.02390
C712        C  0.74348516  0.12107707  0.28731318     0.00060
C713        C  0.74432202  0.11538401  0.32926223    -0.11660
C714        C  0.74478075  0.08331698  0.34322369     0.02270
H715        H  0.73175182  0.04106764  0.24898871     0.15250
H716        H  0.74675637  0.13654699  0.35163766     0.15250
C717        C  0.74991639  0.08130606  0.38737933     0.36900
C718        C  0.73245410  0.09883445  0.21503199     0.36810
N719        N  0.75508653  0.08087307  0.42284401    -0.43440
N720        N  0.72847196  0.10281667  0.18013445    -0.43440
C721        C  0.51261671  0.05979376  0.45284865     0.00150
C722        C  0.56928186  0.08100050  0.44916125    -0.11720
C723        C  0.56826410  0.11505313  0.46023909     0.02390
C724        C  0.50914529  0.12947761  0.47438251     0.00060
C725        C  0.95354156  0.10879859  0.48043019    -0.11660
C726        C  0.95501429  0.07440031  0.47102715     0.02270
H727        H  0.61428362  0.07206317  0.43556904     0.15250
H728        H  0.90780393  0.11978583  0.49113980     0.15250
C729        C  0.89620068  0.05484155  0.48015262     0.36900
C730        C  0.62697553  0.13505715  0.45228908     0.36810
N731        N  0.84913621  0.03927452  0.48766468    -0.43440
N732        N  0.67431296  0.15074943  0.44571931    -0.43440
C733        C  0.69265666  0.01273496  0.35686837     0.00150
C734        C  0.69655637  0.01113336  0.40024534    -0.11720
C735        C  0.64031780  0.01186286  0.42559805     0.02390
C736        C  0.57490539  0.01427678  0.40854208     0.00060
C737        C  0.57080879  0.01051970  0.36491292    -0.11660
C738        C  0.62692971  0.01232571  0.33976029     0.02270
H739        H  0.74411629  0.01237539  0.41598919     0.15250
H740        H  0.52339491  0.00791181  0.34901657     0.15250
C741        C  0.61382384  0.01488039  0.29621680     0.36900
C742        C  0.65409483  0.01197608  0.46929153     0.36810
N743        N  0.60187125  0.01672542  0.26150619    -0.43440
N744        N  0.66866060  0.01160810  0.50382797    -0.43440
C745        C  0.82422636  0.01797902  0.35564718     0.00150
C746        C  0.87230956  0.04419138  0.35513324    -0.11720
C747        C  0.93226802  0.04467036  0.37755807     0.02390
C748        C  0.94612606  0.01970878  0.40597589     0.00060
C749        C  0.89828867  0.99299122  0.40575158    -0.11660
C750        C  0.84250698  0.99056055  0.37859121     0.02270
H751        H  0.86539420  0.06448186  0.33533640     0.15250
H752        H  0.90232607  0.97331246  0.42638692     0.15250
C753        C  0.80328842  0.95985476  0.37655856     0.36900
C754        C  0.97912872  0.07121794  0.36883488     0.36810
N755        N  0.77237413  0.93511652  0.37519938    -0.43440
N756        N  0.01578467  0.09245928  0.36076957    -0.43440
C757        C  0.73042195  0.49115339  0.21780533     0.00150
C758        C  0.74478835  0.50379134  0.25904866    -0.11720
C759        C  0.74452160  0.48443652  0.29333077     0.02390
C760        C  0.74311590  0.44922349  0.28817527     0.00060
C761        C  0.72865370  0.43586265  0.24825586    -0.11660
C762        C  0.71732449  0.45565165  0.21459165     0.02270
H763        H  0.75929072  0.52933175  0.26659420     0.15250
H764        H  0.72303973  0.40917208  0.24301793     0.15250
C765        C  0.69622271  0.43556758  0.17868898     0.36900
C766        C  0.75432701  0.50247325  0.33289784     0.36810
N767        N  0.67874404  0.41510005  0.15406975    -0.43440
N768        N  0.76342297  0.51831382  0.36344156    -0.43440
C769        C  0.00067397  0.45595936  0.46425383     0.00150
C770        C  0.94284734  0.47388661  0.47340069    -0.11720
C771        C  0.93167923  0.48620573  0.01328605     0.02390
C772        C  0.98591342  0.49674883  0.03959049     0.00060
C773        C  0.54850514  0.48458006  0.02665944    -0.11660
C774        C  0.55437731  0.46132145  0.49311333     0.02270
H775        H  0.89959996  0.47260911  0.45332456     0.15250
H776        H  0.59355671  0.49105695  0.04358044     0.15330
C777        C  0.61485189  0.44259401  0.49065873     0.36900
C778        C  0.87176063  0.47171685  0.02897126     0.36810
N779        N  0.66309730  0.42758724  0.48892626    -0.43440
N780        N  0.82424617  0.45835793  0.03994040    -0.43440
C781        C  0.79086547  0.50895123  0.14907651     0.00150
C782        C  0.79127029  0.52738796  0.11345561    -0.11720
C783        C  0.84523371  0.52779342  0.08662169     0.02390
C784        C  0.90869615  0.51563424  0.09903310     0.00060
C785        C  0.90480059  0.49290495  0.13023678    -0.11660
C786        C  0.84717776  0.48840784  0.15380212     0.02270
H787        H  0.74837688  0.54162461  0.10583897     0.15250
H788        H  0.94734115  0.47823032  0.13687115     0.15250
C789        C  0.85152663  0.46248953  0.18186634     0.36900
C790        C  0.83182855  0.54036170  0.04647620     0.36810
N791        N  0.85910955  0.44021340  0.20206134    -0.43440
N792        N  0.82046502  0.55018971  0.01443886    -0.43440
C793        C  0.66438559  0.51707704  0.15541714     0.00150
C794        C  0.62998300  0.54713762  0.15105741    -0.11720
C795        C  0.56634137  0.54861333  0.13333907     0.02390
C796        C  0.53679823  0.52045218  0.11104848     0.00060
C797        C  0.56951807  0.49023377  0.11615507    -0.11660
C798        C  0.63599702  0.48994390  0.13073772     0.02270
H799        H  0.65344456  0.57108948  0.15866056     0.15250
H800        H  0.54861357  0.46742420  0.10132072     0.15250
C801        C  0.67791658  0.46924088  0.10533017     0.36900
C802        C  0.53254396  0.57932081  0.14224003     0.36810
N803        N  0.70938228  0.45231544  0.08381506    -0.43440
N804        N  0.50757243  0.60421909  0.15125220    -0.43440
C805        C  0.48250194  0.62386229  0.02834694     0.00150
C806        C  0.53533658  0.60257554  0.02023718    -0.11720
C807        C  0.53684152  0.57063387  0.03596089     0.02390
C808        C  0.48336024  0.55868385  0.06036019     0.00060
C809        C  0.93718272  0.58297236  0.07256068    -0.11660
C810        C  0.93127650  0.61272859  0.05358235     0.02270
H811        H  0.57815286  0.61193583  0.00407481     0.15250
H812        H  0.90558422  0.57972068  0.09861411     0.15250
C813        C  0.87331397  0.63186010  0.06355032     0.36900
C814        C  0.60004352  0.55479952  0.03285979     0.36810
N815        N  0.82541144  0.64600264  0.07141866    -0.43440
N816        N  0.65284809  0.54419059  0.03038763    -0.43440
C817        C  0.75873491  0.62195118  0.22809770     0.00150
C818        C  0.81459901  0.60482818  0.21411418    -0.11720
C819        C  0.81111285  0.57059793  0.20292020     0.02390
C820        C  0.74853880  0.55276246  0.20195916     0.00060
C821        C  0.69817926  0.56861643  0.22586927    -0.11660
C822        C  0.70123479  0.60294807  0.23673608     0.02270
H823        H  0.86153242  0.61837773  0.21117763     0.15250
H824        H  0.65296352  0.55462050  0.23218554     0.15250
C825        C  0.64322624  0.61807928  0.25444359     0.36900
C826        C  0.87431326  0.55468479  0.20069987     0.36810
N827        N  0.59644922  0.63011652  0.26844135    -0.43440
N828        N  0.92653252  0.54334129  0.20129027    -0.43440
C829        C  0.76168855  0.94852533  0.21813902     0.00150
C830        C  0.81142609  0.97363544  0.22603303    -0.11720
C831        C  0.81312013  0.99489049  0.26193377     0.02390
C832        C  0.76333429  0.99235376  0.29260127     0.00060
C833        C  0.71941159  0.96441232  0.28740092    -0.11660
C834        C  0.71601210  0.94385961  0.25088897     0.02270
H835        H  0.84998190  0.97758627  0.20399172     0.15250
H836        H  0.68519488  0.95869496  0.31148697     0.15250
C837        C  0.66318423  0.91862864  0.24832397     0.36900
C838        C  0.86579556  0.02007879  0.26425110     0.36810
N839        N  0.62042948  0.89871643  0.24661517    -0.43440
N840        N  0.90880134  0.03979421  0.26413540    -0.43440
C841        C  0.75151280  0.88809669  0.18885117     0.00150
C842        C  0.70392975  0.86665791  0.16749003    -0.11720
C843        C  0.69614678  0.83306006  0.17509041     0.02390
C844        C  0.73685061  0.81871685  0.20457648     0.00060
C845        C  0.77966119  0.83969428  0.22914208    -0.11660
C846        C  0.78645480  0.87393864  0.22240888     0.02270
H847        H  0.67164977  0.87523240  0.14394159     0.15250
H848        H  0.81051278  0.82904192  0.25232686     0.15250
C849        C  0.83265872  0.89309826  0.24955661     0.36900
C850        C  0.64599450  0.81365177  0.15110282     0.36810
N851        N  0.86987957  0.90810003  0.27143423    -0.43440
N852        N  0.60588902  0.79826846  0.13180699    -0.43440
C853        C  0.50721144  0.95076552  0.03615339     0.00150
C854        C  0.01743793  0.98496017  0.04573421    -0.11720
C855        C  0.01787569  0.00875064  0.51585325     0.02390
C856        C  0.50939732  0.99895324  0.47256166     0.00060
C857        C  0.50558192  0.96446098  0.46306044    -0.11660
C858        C  0.49735346  0.94113401  0.99322445     0.02270
H859        H  0.02555350  0.99341755  0.07774718     0.15250
H860        H  0.50492411  0.95555608  0.43088928     0.15250
C861        C  0.47315006  0.90876298  0.97723128     0.36900
C862        C  0.03605370  0.04187393  0.53260263     0.36810
N863        N  0.45348095  0.88329398  0.96289632    -0.43440
N864        N  0.05148013  0.06786991  0.54738590    -0.43440
C865        C  0.50446092  0.81844638  0.03611174     0.00150
C866        C  0.56249528  0.83702431  0.02968410    -0.11720
C867        C  0.56452025  0.87187638  0.03521864     0.02390
C868        C  0.51101616  0.88905981  0.05545064     0.00060
C869        C  0.95057299  0.86987946  0.05617276    -0.11660
C870        C  0.94685004  0.83550428  0.04745208     0.02270
H871        H  0.60538809  0.82428223  0.01733847     0.15250
H872        H  0.90464171  0.88165381  0.06362275     0.15250
C873        C  0.88344419  0.81855829  0.05256795     0.36900
C874        C  0.61223262  0.88717795  0.00909947     0.36810
N875        N  0.83241294  0.80528588  0.05678782    -0.43440
N876        N  0.65025182  0.89790409  0.98658770    -0.43440
C877        C  0.70041084  0.93478781  0.14773746     0.00150
C878        C  0.64356034  0.95109776  0.16340802    -0.11720
C879        C  0.58271055  0.95122214  0.14085436     0.02390
C880        C  0.57773046  0.93667347  0.09949945     0.00060
C881        C  0.63969561  0.93283731  0.08140338    -0.11660
C882        C  0.69660383  0.92609059  0.10447228     0.02270
H883        H  0.64473084  0.96367227  0.19355075     0.15250
H884        H  0.64420421  0.93554255  0.04910116     0.15250
C885        C  0.74612739  0.90751865  0.08227252     0.36900
C886        C  0.53057291  0.97029319  0.16009014     0.36810
N887        N  0.78356833  0.89208167  0.06313178    -0.43440
N888        N  0.98993194  0.98593542  0.17615562    -0.43440
C889        C  0.94986575  0.93090107  0.10303266     0.00150
C890        C  0.89939468  0.95453754  0.09921126    -0.11720
C891        C  0.84365997  0.95582845  0.12562114     0.02390
C892        C  0.82974228  0.92984461  0.15287223     0.00060
C893        C  0.88162323  0.90718978  0.15702770    -0.11660
C894        C  0.94149135  0.90907575  0.13568503     0.02270
H895        H  0.90301202  0.97279766  0.07628228     0.15250
H896        H  0.87756819  0.88704911  0.17690067     0.15250
C897        C  0.99239818  0.88639242  0.14684328     0.36900
C898        C  0.80126308  0.98407206  0.12329907     0.36810
N899        N  0.03270997  0.86823018  0.15622524    -0.43440
N900        N  0.76760814  0.00681475  0.12147636    -0.43440
C901        C  0.01143446  0.92708938  0.57298083    -0.02180
C902        C  0.76115428  0.92562701  0.67682405    -0.02180
In903      In  0.75448396  0.71628698  0.68987782     1.36870
C904        C  0.75929473  0.65887754  0.72567412     0.77890
O905        O  0.64591606  0.71429691  0.67953363    -0.60560
O906        O  0.71048324  0.69983030  0.62984626    -0.51470
C907        C  0.74257609  0.78190714  0.70354566     0.70550
O908        O  0.75905768  0.76437178  0.73318611    -0.46330
C909        C  0.85558657  0.71753227  0.64242211     0.75260
O910        O  0.70722004  0.67564546  0.72576228    -0.58190
O911        O  0.80077698  0.70380572  0.63141021    -0.48280
O912        O  0.81086576  0.67503490  0.71625758    -0.54620
C913        C  0.65271266  0.70640490  0.64156017     0.85440
O914        O  0.73283954  0.76554212  0.67009643    -0.56510
O915        O  0.86075075  0.72908712  0.67946480    -0.59810
In916      In  0.50427380  0.72025353  0.56051069     1.36870
C917        C  0.49244003  0.66015765  0.52453895     0.77890
O918        O  0.60864186  0.70774943  0.57385022    -0.60560
O919        O  0.54172367  0.71540115  0.62397793    -0.51470
C920        C  0.50701263  0.78171704  0.53524833     0.70550
O921        O  0.05925925  0.76690582  0.54331612    -0.46330
C922        C  0.90821693  0.71975904  0.61338128     0.75260
O923        O  0.44486620  0.67977359  0.52565695    -0.58190
O924        O  0.96447164  0.73266139  0.62299084    -0.48280
O925        O  0.04861833  0.67424095  0.53048302    -0.54620
C926        C  0.59938867  0.70889636  0.61230436     0.85440
O927        O  0.45628079  0.76294615  0.53156529    -0.56510
O928        O  0.90095060  0.70827168  0.57668397    -0.59810
C929        C  0.47832966  0.52271586  0.57773139    -0.02180
C930        C  0.73370701  0.51626074  0.68100367    -0.02180
C931        C  0.51100407  0.02273794  0.93532042    -0.02180
C932        C  0.75670526  0.01899761  0.82994756    -0.02180
In933      In  0.74971143  0.21870563  0.80717970     1.36870
C934        C  0.74599339  0.28078384  0.78447030     0.77890
O935        O  0.64202704  0.21522029  0.81998149    -0.60560
O936        O  0.71188814  0.21066501  0.86949078    -0.51470
C937        C  0.75149942  0.15624266  0.77741925     0.70550
O938        O  0.70294009  0.17404341  0.76983503    -0.46330
C939        C  0.84785059  0.22699320  0.85977416     0.75260
O940        O  0.79765388  0.26424515  0.77937215    -0.58190
O941        O  0.78830485  0.22788321  0.87119100    -0.48280
O942        O  0.69465641  0.26326909  0.78977818    -0.54620
C943        C  0.65211714  0.21194296  0.85792609     0.85440
O944        O  0.80321743  0.17241257  0.78892797    -0.56510
O945        O  0.85696746  0.22322704  0.82138947    -0.59810
In946      In  0.00356679  0.22398746  0.93849267     1.36870
C947        C  0.49990666  0.16547952  0.97136889     0.77890
O948        O  0.89521054  0.23066311  0.92750904    -0.60560
O949        O  0.96061408  0.22373016  0.87637378    -0.51470
C950        C  0.01766363  0.28776705  0.96157977     0.70550
O951        O  0.56320265  0.27118374  0.94556051    -0.46330
C952        C  0.59918998  0.21298593  0.88702469     0.75260
O953        O  0.04315430  0.18757740  0.98254694    -0.58190
O954        O  0.53962547  0.21458224  0.87527942    -0.48280
O955        O  0.45245521  0.17571261  0.95066084    -0.54620
C956        C  0.90239482  0.22780178  0.88882810     0.85440
O957        O  0.96962096  0.27061231  0.97442241    -0.56510
O958        O  0.60975839  0.21530558  0.92549566    -0.59810
C959        C  0.00101350  0.43008208  0.92646442    -0.02180
C960        C  0.74784447  0.42652616  0.82536421    -0.02180
C961        C  0.68071421  0.43350989  0.84836127     0.00150
C962        C  0.67782223  0.45356928  0.88532611    -0.11720
C963        C  0.61678825  0.45961612  0.90472603     0.02390
C964        C  0.56109400  0.43751339  0.89618522     0.00060
C965        C  0.56145326  0.42191197  0.85608140    -0.11660
C966        C  0.61797396  0.42142380  0.83158075     0.02270
H967        H  0.72184844  0.46682891  0.89754565     0.15250
H968        H  0.51623909  0.41124518  0.84206194     0.15250
C969        C  0.60927802  0.40535332  0.79085089     0.36900
C970        C  0.60956327  0.49262421  0.92369569     0.36810
N971        N  0.59975757  0.39198023  0.75872588    -0.43440
N972        N  0.60404324  0.51941622  0.93793488    -0.43440
C973        C  0.81185023  0.43370472  0.85313181     0.00150
C974        C  0.81431880  0.41711414  0.89008209    -0.11720
C975        C  0.87230789  0.41567380  0.91411772     0.02390
C976        C  0.93277677  0.43157305  0.90213744     0.00060
C977        C  0.92745433  0.45246753  0.86910563    -0.11660
C978        C  0.87128035  0.45188314  0.84307354     0.02270
H979        H  0.77010200  0.40407743  0.90003260     0.15250
H980        H  0.96942117  0.46845093  0.86188967     0.15250
C981        C  0.88191773  0.46878879  0.80571488     0.36900
C982        C  0.86478498  0.39924975  0.95210634     0.36810
N983        N  0.89421023  0.48300755  0.77672204    -0.43440
N984        N  0.85509372  0.38594236  0.98213547    -0.43440
C985        C  0.00706853  0.39301960  0.94021464     0.00150
C986        C  0.50273771  0.36751677  0.90839549    -0.11720
C987        C  0.50734333  0.33394488  0.91526526     0.02390
C988        C  0.01457229  0.32361286  0.95546497     0.00060
C989        C  0.01432548  0.34732215  0.98829449    -0.11660
C990        C  0.00864042  0.38145904  0.98164747     0.02270
H991        H  0.48974966  0.37291712  0.87755364     0.15250
H992        H  0.01573134  0.33892154  0.01940914     0.15250
C993        C  0.99352676  0.40115991  0.01864665     0.36900
C994        C  0.50005104  0.31041121  0.87997943     0.36810
N995        N  0.98057049  0.41518554  0.04946503    -0.43440
N996        N  0.49436353  0.29212318  0.85125418    -0.43440
C997        C  0.74673606  0.31750467  0.79273712     0.00150
C998        C  0.79317390  0.33844246  0.77458129    -0.11720
C999        C  0.79805758  0.37281497  0.78623007     0.02390
C1000       C  0.75092735  0.38783898  0.81354069     0.00060
C1001       C  0.71164799  0.36523706  0.83542975    -0.11660
C1002       C  0.70941795  0.33111317  0.82564820     0.02270
H1003       H  0.82818442  0.32762379  0.75293657     0.15250
H1004       H  0.68379226  0.37372640  0.86204990     0.15250
C1005       C  0.67530680  0.31032212  0.85386309     0.36900
C1006       C  0.85712938  0.39018411  0.77368975     0.36810
N1007       N  0.64993774  0.29365068  0.87717320    -0.43440
N1008       N  0.90760824  0.40176662  0.76439984    -0.43440
C1009       C  0.74632919  0.05498650  0.81461472     0.00150
C1010       C  0.73768856  0.06128916  0.77217168    -0.11720
C1011       C  0.73735506  0.09388581  0.75851465     0.02390
C1012       C  0.74348218  0.12107773  0.78731306     0.00060
C1013       C  0.74431919  0.11538482  0.82926213    -0.11660
C1014       C  0.74477840  0.08331787  0.84322377     0.02270
H1015       H  0.73174984  0.04106817  0.74898899     0.15250
H1016       H  0.74675330  0.13654788  0.85163746     0.15250
C1017       C  0.74991409  0.08130718  0.88737945     0.36900
C1018       C  0.73245127  0.09883485  0.71503196     0.36810
N1019       N  0.75508421  0.08087443  0.92284415    -0.43440
N1020       N  0.72846895  0.10281694  0.68013440    -0.43440
C1021       C  0.51261392  0.05979518  0.95284930     0.00150
C1022       C  0.56927900  0.08100206  0.94916249    -0.11720
C1023       C  0.56826086  0.11505461  0.96024055     0.02390
C1024       C  0.50914158  0.12947894  0.97438342     0.00060
C1025       C  0.95353778  0.10879980  0.98043049    -0.11660
C1026       C  0.95501093  0.07440156  0.97102732     0.02270
H1027       H  0.61428111  0.07206491  0.93557057     0.15250
H1028       H  0.90779981  0.11978692  0.99113972     0.15250
C1029       C  0.89619728  0.05484264  0.98015230     0.36900
C1030       C  0.62697254  0.13505869  0.95229127     0.36810
N1031       N  0.84913276  0.03927549  0.98766397    -0.43440
N1032       N  0.67431021  0.15075099  0.94572209    -0.43440
C1033       C  0.69265472  0.01273599  0.85686883     0.00150
C1034       C  0.69655443  0.01113472  0.90024584    -0.11720
C1035       C  0.64031588  0.01186488  0.92559853     0.02390
C1036       C  0.57490354  0.01427873  0.90854244     0.00060
C1037       C  0.57080691  0.01052125  0.86491331    -0.11660
C1038       C  0.62692782  0.01232685  0.83976069     0.02270
H1039       H  0.74411438  0.01237666  0.91598967     0.15250
H1040       H  0.52339305  0.00791333  0.84901694     0.15250
C1041       C  0.61382196  0.01488121  0.79621714     0.36900
C1042       C  0.65409279  0.01197914  0.96929212     0.36810
N1043       N  0.60186934  0.01672598  0.76150649    -0.43440
N1044       N  0.66865816  0.01161217  0.00382872    -0.43440
C1045       C  0.82422441  0.01797998  0.85564768     0.00150
C1046       C  0.87230739  0.04419243  0.85513363    -0.11720
C1047       C  0.93226580  0.04467162  0.87755848     0.02390
C1048       C  0.94612424  0.01971004  0.90597617     0.00060
C1049       C  0.89828758  0.99299217  0.90575174    -0.11660
C1050       C  0.84250535  0.99056154  0.87859174     0.02270
H1051       H  0.86539186  0.06448286  0.83533673     0.15250
H1052       H  0.90232646  0.97331314  0.92638666     0.15250
C1053       C  0.80328675  0.95985577  0.87655932     0.36900
C1054       C  0.97912614  0.07121940  0.86883546     0.36810
N1055       N  0.77237237  0.93511756  0.87520033    -0.43440
N1056       N  0.01578185  0.09246090  0.86077034    -0.43440
C1057       C  0.73042308  0.49115354  0.71780480     0.00150
C1058       C  0.74478833  0.50379162  0.75904821    -0.11720
C1059       C  0.74452068  0.48443691  0.79333041     0.02390
C1060       C  0.74311481  0.44922388  0.78817507     0.00060
C1061       C  0.72865337  0.43586293  0.74825562    -0.11660
C1062       C  0.71732564  0.45565180  0.71459113     0.02270
H1063       H  0.75929061  0.52933203  0.76659378     0.15250
H1064       H  0.72303916  0.40917236  0.74301781     0.15250
C1065       C  0.69622651  0.43556752  0.67868806     0.36900
C1066       C  0.75432560  0.50247374  0.83289746     0.36810
N1067       N  0.67875019  0.41509974  0.65406852    -0.43440
N1068       N  0.76342121  0.51831439  0.86344116    -0.43440
C1069       C  0.00067268  0.45596007  0.96425377     0.00150
C1070       C  0.94284592  0.47388717  0.97340082    -0.11720
C1071       C  0.93168069  0.48620549  0.51328579     0.02390
C1072       C  0.98591490  0.49674858  0.53959024     0.00060
C1073       C  0.54850651  0.48457957  0.52665934    -0.11660
C1074       C  0.55437605  0.46132211  0.99311326     0.02270
H1075       H  0.89959850  0.47260971  0.95332473     0.15250
H1076       H  0.59355806  0.49105643  0.54358034     0.15330
C1077       C  0.61485068  0.44259471  0.99065859     0.36900
C1078       C  0.87176177  0.47171696  0.52897099     0.36810
N1079       N  0.66309613  0.42758797  0.98892609    -0.43440
N1080       N  0.82424704  0.45835827  0.53994009    -0.43440
C1081       C  0.79086684  0.50895114  0.64907585     0.00150
C1082       C  0.79127184  0.52738803  0.61345510    -0.11720
C1083       C  0.84523543  0.52779364  0.58662131     0.02390
C1084       C  0.90869770  0.51563428  0.59903270     0.00060
C1085       C  0.90480181  0.49290473  0.63023609    -0.11660
C1086       C  0.84717892  0.48840761  0.65380136     0.02270
H1087       H  0.74837851  0.54162477  0.60583851     0.15250
H1088       H  0.94734221  0.47822997  0.63687034     0.15250
C1089       C  0.85152769  0.46248930  0.68186562     0.36900
C1090       C  0.83183053  0.54036208  0.54647587     0.36810
N1091       N  0.85911045  0.44021321  0.70206069    -0.43440
N1092       N  0.82046722  0.55019021  0.51443858    -0.43440
C1093       C  0.66438712  0.51707711  0.65541669     0.00150
C1094       C  0.62998440  0.54713764  0.65105702    -0.11720
C1095       C  0.56634259  0.54861323  0.63333890     0.02390
C1096       C  0.53679957  0.52045207  0.61104829     0.00060
C1097       C  0.56951935  0.49023369  0.61615500    -0.11660
C1098       C  0.63599836  0.48994387  0.63073750     0.02270
H1099       H  0.65344590  0.57108954  0.65866002     0.15250
H1100       H  0.54861482  0.46742409  0.60132074     0.15250
C1101       C  0.67791767  0.46924099  0.60532963     0.36900
C1102       C  0.53254474  0.57932052  0.64224025     0.36810
N1103       N  0.70938303  0.45231569  0.58381413    -0.43440
N1104       N  0.50757280  0.60421863  0.65125278    -0.43440
C1105       C  0.48250607  0.62386245  0.52834712     0.00150
C1106       C  0.53534006  0.60257535  0.52023717    -0.11720
C1107       C  0.53684413  0.57063359  0.53596068     0.02390
C1108       C  0.48336241  0.55868373  0.56035979     0.00060
C1109       C  0.93718531  0.58297244  0.57256029    -0.11660
C1110       C  0.93128030  0.61272899  0.55358249     0.02270
H1111       H  0.57815656  0.61193541  0.50407482     0.15250
H1112       H  0.90558649  0.57972077  0.59861357     0.15250
C1113       C  0.87331886  0.63186112  0.56355118     0.36900
C1114       C  0.60004578  0.55479890  0.53285957     0.36810
N1115       N  0.82541728  0.64600425  0.57142016    -0.43440
N1116       N  0.65285015  0.54418974  0.53038738    -0.43440
C1117       C  0.75873960  0.62195127  0.72809663     0.00150
C1118       C  0.81460317  0.60482769  0.71411340    -0.11720
C1119       C  0.81111588  0.57059742  0.70291972     0.02390
C1120       C  0.74854116  0.55276254  0.70195840     0.00060
C1121       C  0.69818203  0.56861705  0.72586829    -0.11660
C1122       C  0.70123876  0.60294869  0.73673503     0.02270
H1123       H  0.86153714  0.61837679  0.71117701     0.15250
H1124       H  0.65296582  0.55462152  0.73218461     0.15250
C1125       C  0.64323065  0.61808043  0.75444240     0.36900
C1126       C  0.87431571  0.55468366  0.70070014     0.36810
N1127       N  0.59645397  0.63011807  0.76844007    -0.43440
N1128       N  0.92653450  0.54333968  0.70129112    -0.43440
C1129       C  0.76168640  0.94852573  0.71813999     0.00150
C1130       C  0.81142389  0.97363591  0.72603380    -0.11720
C1131       C  0.81311797  0.99489108  0.76193440     0.02390
C1132       C  0.76333217  0.99235447  0.79260192     0.00060
C1133       C  0.71940927  0.96441308  0.78740168    -0.11660
C1134       C  0.71600965  0.94386028  0.75088979     0.02270
H1135       H  0.84997959  0.97758674  0.70399239     0.15250
H1136       H  0.68519246  0.95869584  0.81148773     0.15250
C1137       C  0.66318145  0.91862951  0.74832467     0.36900
C1138       C  0.86579337  0.02007940  0.76425158     0.36810
N1139       N  0.62042643  0.89871744  0.74661582    -0.43440
N1140       N  0.90879909  0.03979485  0.76413577    -0.43440
C1141       C  0.75151142  0.88809682  0.68885290     0.00150
C1142       C  0.70392745  0.86665797  0.66749266    -0.11720
C1143       C  0.69614499  0.83306013  0.67509311     0.02390
C1144       C  0.73685071  0.81871687  0.70457815     0.00060
C1145       C  0.77966160  0.83969443  0.72914341    -0.11660
C1146       C  0.78645392  0.87393892  0.72241053     0.02270
H1147       H  0.67164584  0.87523239  0.64394507     0.15250
H1148       H  0.81051402  0.82904218  0.75232785     0.15250
C1149       C  0.83265646  0.89309891  0.74955880     0.36900
C1150       C  0.64599099  0.81365199  0.65110674     0.36810
N1151       N  0.86987617  0.90810098  0.77143688    -0.43440
N1152       N  0.60588409  0.79826883  0.63181193    -0.43440
C1153       C  0.50720837  0.95076553  0.53615473     0.00150
C1154       C  0.01743899  0.98496001  0.54573480    -0.11720
C1155       C  0.01787272  0.00875128  0.01585328     0.02390
C1156       C  0.50939588  0.99895438  0.97256151     0.00060
C1157       C  0.50558462  0.96446223  0.96305935    -0.11660
C1158       C  0.49734541  0.94113388  0.49322638     0.02270
H1159       H  0.02555645  0.99341764  0.57774750     0.15250
H1160       H  0.50492807  0.95555809  0.93088791     0.15250
C1161       C  0.47312873  0.90876449  0.47723558     0.36900
C1162       C  0.03604684  0.04187476  0.03260360     0.36810
N1163       N  0.45344872  0.88329669  0.46290301    -0.43440
N1164       N  0.05147019  0.06787089  0.04738768    -0.43440
C1165       C  0.50446461  0.81844626  0.53611220     0.00150
C1166       C  0.56249435  0.83702613  0.52967904    -0.11720
C1167       C  0.56451500  0.87187825  0.53521380     0.02390
C1168       C  0.51101359  0.88905969  0.55545145     0.00060
C1169       C  0.95057369  0.86987717  0.55617921    -0.11660
C1170       C  0.94685417  0.83550197  0.54745871     0.02270
H1171       H  0.60538578  0.82428555  0.51732899     0.15250
H1172       H  0.90464201  0.88164946  0.56363356     0.15250
C1173       C  0.88345314  0.81855342  0.55258228     0.36900
C1174       C  0.61221870  0.88718214  0.50909087     0.36810
N1175       N  0.83242591  0.80527889  0.55680849    -0.43440
N1176       N  0.65023082  0.89791083  0.48657663    -0.43440
C1177       C  0.70040912  0.93478736  0.64773844     0.00150
C1178       C  0.64355943  0.95109854  0.66340814    -0.11720
C1179       C  0.58270976  0.95122304  0.64085429     0.02390
C1180       C  0.57772876  0.93667291  0.59950007     0.00060
C1181       C  0.63969376  0.93283432  0.58140438    -0.11660
C1182       C  0.69660184  0.92608840  0.60447373     0.02270
H1183       H  0.64473047  0.96367387  0.69355044     0.15250
H1184       H  0.64420369  0.93553848  0.54910227     0.15250
C1185       C  0.74612582  0.90751605  0.58227478     0.36900
C1186       C  0.53057295  0.97029530  0.66008911     0.36810
N1187       N  0.78356732  0.89207888  0.56313469    -0.43440
N1188       N  0.98993249  0.98593843  0.67615374    -0.43440
C1189       C  0.94986382  0.93090148  0.60303413     0.00150
C1190       C  0.89939207  0.95453744  0.59921185    -0.11720
C1191       C  0.84365706  0.95582832  0.62562150     0.02390
C1192       C  0.82974039  0.92984500  0.65287355     0.00060
C1193       C  0.88162273  0.90719122  0.65703048    -0.11660
C1194       C  0.94149083  0.90907731  0.63568782     0.02270
H1195       H  0.90300923  0.97279713  0.57628227     0.15250
H1196       H  0.87756872  0.88705119  0.67690441     0.15250
C1197       C  0.99239836  0.88639460  0.64684680     0.36900
C1198       C  0.80125914  0.98407145  0.62329840     0.36810
N1199       N  0.03271052  0.86823278  0.65622934    -0.43440
N1200       N  0.76760337  0.00681375  0.62147483    -0.43440
loop_ 
_geom_bond_atom_site_label_1 
_geom_bond_atom_site_label_2 
_geom_bond_distance 
_geom_bond_site_symmetry_2 
_ccdc_geom_bond_type 
C1          C289   1.594       .  S
C1          C853   1.576       .  S
C1          C868   1.602       .  S
C1          C880   1.603       .  S
C2          C229   1.584       .  S
C2          C241   1.590       .  S
C2          C277   1.599       .  S
C2          C292   1.604       .  S
In3           O5   2.203       .  S
In3           O6   2.190       .  S
In3          O14   2.173       .  S
In3           O8   2.325       .  S
In3          O10   2.261       .  S
In3          O11   2.168       .  S
In3          O12   2.241       .  S
In3          O15   2.220       .  S
C4           O10   1.262       .  A
C4           O12   1.260       .  A
C4          C217   1.493       .  S
O5           C13   1.267       .  A
O6           C13   1.258       .  A
C7           O14   1.248       .  A
C7            O8   1.273       .  A
C7          C244   1.488       .  S
C9           O11   1.257       .  A
C9           O15   1.267       .  A
C9           C22   1.433       .  S
C13          C26   1.433       .  S
In16         O18   2.215       .  S
In16         O19   2.208       .  S
In16         O27   2.242   1_455  S
In16         O23   2.236   1_455  S
In16        O621   2.255       .  S
In16        O624   2.229   1_455  S
In16        O625   2.255       .  S
In16        O628   2.198   1_455  S
C17          O23   1.257       .  A
C17         O625   1.257   1_655  A
C17         C205   1.482       .  S
O18          C26   1.265       .  A
O19          C26   1.255       .  A
C20          O27   1.253   1_455  A
C20         O621   1.255       .  A
C20         C265   1.479       .  S
O21        In616   2.255       .  S
O21         C620   1.255       .  A
C22          O24   1.259       .  A
C22          O28   1.259       .  A
O24        In616   2.229       .  S
O25        In616   2.255       .  S
O25         C617   1.257       .  A
O28        In616   2.198       .  S
C29         C196   1.595   1_655  S
C29         C208   1.586       .  S
C29         C772   1.586       .  S
C29         C784   1.597       .  S
C30         C157   1.612       .  S
C30         C181   1.582       .  S
C30         C193   1.615       .  S
C30         C220   1.601       .  S
C31         C121   1.565       .  S
C31         C136   1.596       .  S
C31         C256   1.587   1_545  S
C31         C748   1.603   1_455  S
C32         C109   1.578       .  S
C32         C133   1.591       .  S
C32         C145   1.587       .  S
C32         C232   1.582   1_545  S
In33         O35   2.214       .  S
In33         O36   2.213       .  S
In33         O44   2.232       .  S
In33         O38   2.282       .  S
In33         O40   2.287       .  S
In33         O41   2.218       .  S
In33         O42   2.231       .  S
In33         O45   2.200       .  S
C34          O40   1.257       .  A
C34          O42   1.254       .  A
C34          C97   1.486       .  S
O35          C43   1.263       .  A
O36          C43   1.258       .  A
C37          O44   1.252       .  A
C37          O38   1.257       .  A
C37         C112   1.475       .  S
C39          O41   1.260       .  A
C39          O45   1.265       .  A
C39          C56   1.436       .  S
C43          C52   1.434       .  S
In46         O48   2.230       .  S
In46         O49   2.185       .  S
In46         O57   2.278       .  S
In46         O53   2.261       .  S
In46        O651   2.217       .  S
In46        O654   2.205       .  S
In46        O655   2.231       .  S
In46        O658   2.217       .  S
C47          O55   1.253       .  A
C47         O653   1.261   1_655  A
C47         C124   1.475   1_655  S
O48          C56   1.267       .  A
O49          C56   1.257       .  A
C50          O57   1.262       .  A
C50         O651   1.250       .  A
C50          C88   1.471       .  S
O51        In646   2.217       .  S
O51         C650   1.250       .  A
C52          O54   1.257       .  A
C52          O58   1.263       .  A
O53         C647   1.261       .  A
O54        In646   2.205       .  S
O55        In646   2.231   1_655  S
O58        In646   2.217       .  S
C59          C76   1.578       .  S
C59          C85   1.590       .  S
C59         C169   1.564       .  S
C59         C664   1.602       .  S
C60          C61   1.577       .  S
C60          C73   1.572       .  S
C60         C100   1.585       .  S
C60         C160   1.561       .  S
C61          C62   1.411       .  A
C61          C66   1.429       .  A
C62          C63   1.409       .  A
C62          H67   1.079       .  S
C63          C64   1.425       .  A
C63          C70   1.444       .  S
C64         C659   1.602       .  S
C64          C65   1.414       .  A
C65          C66   1.398       .  A
C65          H68   1.078       .  S
C66          C69   1.445       .  S
C69          N71   1.158       .  T
C70          N72   1.157       .  T
C73          C74   1.409       .  A
C73          C78   1.436       .  A
C74          C75   1.399       .  A
C74          H79   1.083       .  S
C75          C76   1.428       .  A
C75          C82   1.443       .  S
C76          C77   1.407       .  A
C77          C78   1.401       .  A
C77          H80   1.084       .  S
C78          C81   1.442       .  S
C81          N83   1.157       .  T
C82          N84   1.157       .  T
C85          C90   1.451       .  A
C85         C686   1.414       .  A
C86          C87   1.388       .  A
C86         C685   1.414       .  A
C86          H91   1.069   1_455  S
C87         C688   1.401       .  A
C87          C94   1.447       .  S
C88          C89   1.390       .  A
C88         C687   1.401       .  A
C89          C90   1.411       .  A
C89          H92   1.086       .  S
C90          C93   1.442       .  S
C93          N95   1.158       .  T
C94          N96   1.157   1_455  T
C97          C98   1.401       .  A
C97         C102   1.409       .  A
C98          C99   1.413       .  A
C98         H103   1.085       .  S
C99         C100   1.431       .  A
C99         C106   1.438       .  S
C100        C101   1.418       .  A
C101        C102   1.391       .  A
C101        H104   1.082       .  S
C102        C105   1.445       .  S
C105        N107   1.156       .  T
C106        N108   1.157       .  T
C109        C110   1.427       .  A
C109        C114   1.430       .  A
C110        C111   1.410       .  A
C110        H115   1.079       .  S
C111        C112   1.400       .  A
C111        C118   1.442       .  S
C112        C113   1.396       .  A
C113        C114   1.393       .  A
C113        H116   1.087       .  S
C114        C117   1.445       .  S
C117        N119   1.157       .  T
C118        N120   1.157       .  T
C121        C122   1.415       .  A
C121        C726   1.433   1_455  A
C122        C123   1.397       .  A
C122        H127   1.075       .  S
C123        C124   1.409       .  A
C123        C130   1.446       .  S
C124        C725   1.398   1_455  A
C125        C126   1.402       .  A
C125        C724   1.398       .  A
C125        H128   1.085       .  S
C126        C721   1.433       .  A
C126        C129   1.447       .  S
C129        N131   1.157       .  T
C130        N132   1.157       .  T
C133        C134   1.417       .  A
C133        C138   1.426       .  A
C134        C135   1.409       .  A
C134        H139   1.077       .  S
C135        C136   1.428       .  A
C135        C142   1.443       .  S
C136        C137   1.419       .  A
C137        C138   1.406       .  A
C137        H140   1.078       .  S
C138        C141   1.446       .  S
C141        N143   1.158       .  T
C142        N144   1.157       .  T
C145        C146   1.412       .  A
C145        C150   1.422   1_545  A
C146        C147   1.399       .  A
C146        H151   1.080       .  S
C147        C148   1.435       .  A
C147        C154   1.448       .  S
C148        C631   1.603       .  S
C148        C149   1.422   1_545  A
C149        C150   1.415       .  A
C149        H152   1.072       .  S
C150        C153   1.445       .  S
C153        N155   1.157       .  T
C154        N156   1.158       .  T
C157        C158   1.429       .  A
C157        C162   1.443       .  A
C158        C159   1.397       .  A
C158        H163   1.074       .  S
C159        C160   1.417       .  A
C159        C166   1.448       .  S
C160        C161   1.399       .  A
C161        C162   1.411       .  A
C161        H164   1.080       .  S
C162        C165   1.433       .  S
C165        N167   1.158       .  T
C166        N168   1.158       .  T
C169        C170   1.412       .  A
C169        C774   1.424       .  A
C170        C471   1.385       .  A
C170        H175   1.078       .  S
C171        C172   1.416       .  A
C171        C470   1.385   1_554  A
C171        C178   1.437       .  S
C172        C629   1.586       .  S
C172        C773   1.424       .  A
C173        C772   1.424   1_455  A
C173        C474   1.404   1_554  A
C173        H176   1.071       .  S
C174        C769   1.424       .  A
C174        C473   1.404       .  A
C174        C177   1.450       .  S
C177        N179   1.158       .  T
C178        N180   1.155       .  T
C181        C182   1.412       .  A
C181        C186   1.433       .  A
C182        C183   1.403       .  A
C182        H187   1.083       .  S
C183        C184   1.440       .  A
C183        C190   1.452       .  S
C184        C629   1.597       .  S
C184        C185   1.407       .  A
C185        C186   1.412       .  A
C185        H188   1.080       .  S
C186        C189   1.429       .  S
C189        N191   1.154       .  T
C190        N192   1.158       .  T
C193        C194   1.424       .  A
C193        C198   1.418       .  A
C194        C195   1.400       .  A
C194        H199   1.075       .  S
C195        C196   1.420       .  A
C195        C202   1.444       .  S
C196        C197   1.416       .  A
C197        C198   1.413       .  A
C197        H200   1.083       .  S
C198        C201   1.438       .  S
C201        N203   1.156       .  T
C202        N204   1.158       .  T
C205        C206   1.402   1_655  A
C205        C810   1.406       .  A
C206        C207   1.412       .  A
C206        H211   1.085       .  S
C207        C208   1.435   1_455  A
C207        C214   1.440       .  S
C208        C809   1.411       .  A
C209        C210   1.386       .  A
C209        C808   1.411       .  A
C209        H212   1.078       .  S
C210        C805   1.406       .  A
C210        C213   1.445       .  S
C213        N215   1.157       .  T
C214        N216   1.158       .  T
C217        C218   1.402       .  A
C217        C222   1.409       .  A
C218        C219   1.404       .  A
C218        H223   1.085       .  S
C219        C220   1.430       .  A
C219        C226   1.440       .  S
C220        C221   1.428       .  A
C221        C222   1.406       .  A
C221        H224   1.085       .  S
C222        C225   1.443       .  S
C225        N227   1.157       .  T
C226        N228   1.157       .  T
C229        C230   1.412       .  A
C229        C234   1.434       .  A
C230        C231   1.406       .  A
C230        H235   1.078       .  S
C231        C232   1.429       .  A
C231        C238   1.444   1_565  S
C232        C233   1.411       .  A
C233        C234   1.406       .  A
C233        H236   1.081       .  S
C234        C237   1.447       .  S
C237        N239   1.157       .  T
C238        N240   1.158       .  T
C241        C242   1.417       .  A
C241        C246   1.443       .  A
C242        C243   1.394       .  A
C242        H247   1.075       .  S
C243        C244   1.411       .  A
C243        C250   1.448       .  S
C244        C245   1.397       .  A
C245        C246   1.412       .  A
C245        H248   1.085       .  S
C246        C249   1.447       .  S
C249        N251   1.158       .  T
C250        N252   1.157       .  T
C253        C601   1.576       .  S
C253        C258   1.436   1_454  A
C253        C854   1.402       .  A
C254        C853   1.402       .  A
C254        C555   1.404   1_565  A
C254        H259   1.085       .  S
C255        C554   1.404   1_545  A
C255        C856   1.446   1_545  A
C255        C262   1.446       .  S
C256        C257   1.404       .  A
C256        C855   1.446   1_565  A
C257        C558   1.405   1_455  A
C257        H260   1.085       .  S
C258        C557   1.405   1_655  A
C258        C261   1.443       .  S
C261        N263   1.158       .  T
C262        N264   1.158       .  T
C265        C266   1.394       .  A
C265        C870   1.406   1_455  A
C266        C267   1.403       .  A
C266        H271   1.086       .  S
C267        C268   1.442       .  A
C267        C274   1.440       .  S
C268        C601   1.602       .  S
C268        C869   1.423   1_455  A
C269        C270   1.396       .  A
C269        C868   1.423       .  A
C269        H272   1.074       .  S
C270        C865   1.406       .  A
C270        C273   1.446       .  S
C273        N275   1.157       .  T
C274        N276   1.158   1_554  T
C277        C278   1.421       .  A
C277        C282   1.430       .  A
C278        C279   1.418       .  A
C278        H283   1.076       .  S
C279        C280   1.436       .  A
C279        C286   1.445       .  S
C280        C601   1.603       .  S
C280        C281   1.395       .  A
C281        C282   1.401       .  A
C281        H284   1.067       .  S
C282        C285   1.439       .  S
C285        N287   1.155       .  T
C286        N888   1.158   1_455  T
N288        C886   1.158       .  T
C289        C290   1.420       .  A
C289        C294   1.426       .  A
C290        C291   1.422       .  A
C290        H295   1.079       .  S
C291        C292   1.434       .  A
C291        C298   1.445       .  S
C292        C293   1.415       .  A
C293        C294   1.401       .  A
C293        H296   1.068       .  S
C294        C297   1.447       .  S
C297        N299   1.156       .  T
C298        N300   1.157   1_565  T
C301       C1153   1.576       .  S
C301       C1168   1.602       .  S
C301       C1180   1.603       .  S
C301        C589   1.594       .  S
C302        C529   1.584       .  S
C302        C541   1.590       .  S
C302        C577   1.599       .  S
C302        C592   1.604       .  S
In303       O305   2.203       .  S
In303       O306   2.190       .  S
In303       O314   2.173       .  S
In303       O308   2.325       .  S
In303       O310   2.261       .  S
In303       O311   2.168       .  S
In303       O312   2.241       .  S
In303       O315   2.220       .  S
C304        O310   1.262       .  A
C304        O312   1.260       .  A
C304        C517   1.493       .  S
O305        C313   1.267       .  A
O306        C313   1.258       .  A
C307        O314   1.248       .  A
C307        O308   1.273       .  A
C307        C544   1.488       .  S
C309        O311   1.257       .  A
C309        O315   1.267       .  A
C309        C322   1.433       .  S
C313        C326   1.433       .  S
In316       O318   2.215       .  S
In316       O319   2.208       .  S
In316       O327   2.242   1_455  S
In316       O921   2.255       .  S
In316       O323   2.236   1_455  S
In316       O924   2.229   1_455  S
In316       O925   2.255       .  S
In316       O928   2.198   1_455  S
C317        O323   1.257       .  A
C317        O925   1.257   1_655  A
C317        C505   1.482       .  S
O318        C326   1.265       .  A
O319        C326   1.255       .  A
C320        O327   1.253   1_455  A
C320        O921   1.255       .  A
C320        C565   1.479       .  S
O321       In916   2.255       .  S
O321        C920   1.255       .  A
C322        O324   1.259       .  A
C322        O328   1.259       .  A
O324       In916   2.229       .  S
O325       In916   2.255       .  S
O325        C917   1.257       .  A
O328       In916   2.198       .  S
C329       C1072   1.586       .  S
C329       C1084   1.597       .  S
C329        C496   1.595   1_655  S
C329        C508   1.586       .  S
C330        C457   1.612       .  S
C330        C481   1.582       .  S
C330        C493   1.615       .  S
C330        C520   1.601       .  S
C331        C421   1.565       .  S
C331        C436   1.596       .  S
C331       C1048   1.603   1_455  S
C331        C556   1.587   1_545  S
C332        C409   1.578       .  S
C332        C433   1.591       .  S
C332        C445   1.587       .  S
C332        C532   1.582   1_545  S
In333       O335   2.214       .  S
In333       O336   2.213       .  S
In333       O344   2.232       .  S
In333       O338   2.282       .  S
In333       O340   2.287       .  S
In333       O341   2.218       .  S
In333       O342   2.231       .  S
In333       O345   2.200       .  S
C334        O340   1.257       .  A
C334        O342   1.254       .  A
C334        C397   1.486       .  S
O335        C343   1.263       .  A
O336        C343   1.258       .  A
C337        O344   1.252       .  A
C337        O338   1.257       .  A
C337        C412   1.475       .  S
C339        O341   1.260       .  A
C339        O345   1.265       .  A
C339        C356   1.436       .  S
C343        C352   1.434       .  S
In346       O348   2.230       .  S
In346       O349   2.185       .  S
In346       O357   2.278       .  S
In346       O951   2.217       .  S
In346       O353   2.261       .  S
In346       O954   2.205       .  S
In346       O955   2.231       .  S
In346       O958   2.217       .  S
C347        O953   1.261   1_655  A
C347        O355   1.253       .  A
C347        C424   1.475   1_655  S
O348        C356   1.267       .  A
O349        C356   1.257       .  A
C350        O357   1.262       .  A
C350        O951   1.250       .  A
C350        C388   1.471       .  S
O351       In946   2.217       .  S
O351        C950   1.250       .  A
C352        O354   1.257       .  A
C352        O358   1.263       .  A
O353        C947   1.261       .  A
O354       In946   2.205       .  S
O355       In946   2.231   1_655  S
O358       In946   2.217       .  S
C359        C964   1.602       .  S
C359        C376   1.578       .  S
C359        C385   1.590       .  S
C359        C469   1.564       .  S
C360        C361   1.577       .  S
C360        C373   1.572       .  S
C360        C400   1.585       .  S
C360        C460   1.561       .  S
C361        C362   1.411       .  A
C361        C366   1.429       .  A
C362        C363   1.409       .  A
C362        H367   1.079       .  S
C363        C364   1.425       .  A
C363        C370   1.444       .  S
C364        C959   1.602       .  S
C364        C365   1.414       .  A
C365        C366   1.398       .  A
C365        H368   1.078       .  S
C366        C369   1.445       .  S
C369        N371   1.158       .  T
C370        N372   1.157       .  T
C373        C374   1.409       .  A
C373        C378   1.436       .  A
C374        C375   1.399       .  A
C374        H379   1.083       .  S
C375        C376   1.428       .  A
C375        C382   1.443       .  S
C376        C377   1.407       .  A
C377        C378   1.401       .  A
C377        H380   1.084       .  S
C378        C381   1.442       .  S
C381        N383   1.157       .  T
C382        N384   1.157       .  T
C385        C986   1.414       .  A
C385        C390   1.451       .  A
C386        C985   1.414       .  A
C386        C387   1.388       .  A
C386        H391   1.069   1_455  S
C387        C988   1.401       .  A
C387        C394   1.447       .  S
C388        C987   1.401       .  A
C388        C389   1.390       .  A
C389        C390   1.411       .  A
C389        H392   1.086   1_556  S
C390        C393   1.442   1_556  S
C393        N395   1.158       .  T
C394        N396   1.157   1_455  T
C397        C398   1.401       .  A
C397        C402   1.409       .  A
C398        C399   1.413       .  A
C398        H403   1.085       .  S
C399        C400   1.431       .  A
C399        C406   1.438       .  S
C400        C401   1.418       .  A
C401        C402   1.391       .  A
C401        H404   1.082       .  S
C402        C405   1.445       .  S
C405        N407   1.156       .  T
C406        N408   1.157       .  T
C409        C410   1.427       .  A
C409        C414   1.430       .  A
C410        C411   1.410       .  A
C410        H415   1.079       .  S
C411        C412   1.400       .  A
C411        C418   1.442       .  S
C412        C413   1.396       .  A
C413        C414   1.393       .  A
C413        H416   1.087       .  S
C414        C417   1.445       .  S
C417        N419   1.157       .  T
C418        N420   1.157       .  T
C421        C422   1.415       .  A
C421       C1026   1.433   1_455  A
C422        C423   1.397       .  A
C422        H427   1.075       .  S
C423        C424   1.409       .  A
C423        C430   1.446       .  S
C424       C1025   1.398   1_455  A
C425       C1024   1.398       .  A
C425        C426   1.402       .  A
C425        H428   1.085       .  S
C426       C1021   1.433       .  A
C426        C429   1.447       .  S
C429        N431   1.157       .  T
C430        N432   1.157       .  T
C433        C434   1.417       .  A
C433        C438   1.426       .  A
C434        C435   1.409       .  A
C434        H439   1.077       .  S
C435        C436   1.428       .  A
C435        C442   1.443       .  S
C436        C437   1.419       .  A
C437        C438   1.406       .  A
C437        H440   1.078       .  S
C438        C441   1.446       .  S
C441        N443   1.158       .  T
C442        N444   1.157   1_556  T
C445        C446   1.412       .  A
C445        C450   1.422   1_545  A
C446        C447   1.399       .  A
C446        H451   1.080       .  S
C447        C448   1.435       .  A
C447        C454   1.448       .  S
C448        C931   1.603       .  S
C448        C449   1.422   1_545  A
C449        C450   1.415       .  A
C449        H452   1.072       .  S
C450        C453   1.445       .  S
C453        N455   1.157       .  T
C454        N456   1.158       .  T
C457        C458   1.429       .  A
C457        C462   1.443       .  A
C458        C459   1.397       .  A
C458        H463   1.074       .  S
C459        C460   1.417       .  A
C459        C466   1.448       .  S
C460        C461   1.399       .  A
C461        C462   1.411       .  A
C461        H464   1.080       .  S
C462        C465   1.433       .  S
C465        N467   1.158       .  T
C466        N468   1.158       .  T
C469        C470   1.412       .  A
C469       C1074   1.424       .  A
C470        H475   1.078       .  S
C471        C472   1.416       .  A
C471        C478   1.437       .  S
C472        C929   1.586       .  S
C472       C1073   1.424       .  A
C473       C1072   1.424   1_455  A
C473        H476   1.071       .  S
C474       C1069   1.424       .  A
C474        C477   1.450       .  S
C477        N479   1.158       .  T
C478        N480   1.155       .  T
C481        C482   1.412       .  A
C481        C486   1.433       .  A
C482        C483   1.403       .  A
C482        H487   1.083       .  S
C483        C484   1.440       .  A
C483        C490   1.452       .  S
C484        C929   1.597       .  S
C484        C485   1.407       .  A
C485        C486   1.412       .  A
C485        H488   1.080       .  S
C486        C489   1.429       .  S
C489        N491   1.154       .  T
C490        N492   1.158       .  T
C493        C494   1.424       .  A
C493        C498   1.418       .  A
C494        C495   1.400       .  A
C494        H499   1.075       .  S
C495        C496   1.420       .  A
C495        C502   1.444       .  S
C496        C497   1.416       .  A
C497        C498   1.413       .  A
C497        H500   1.083       .  S
C498        C501   1.438       .  S
C501        N503   1.156       .  T
C502        N504   1.158       .  T
C505        C506   1.402   1_655  A
C505       C1110   1.406       .  A
C506        C507   1.412       .  A
C506        H511   1.085       .  S
C507        C508   1.435   1_455  A
C507        C514   1.440       .  S
C508       C1109   1.411       .  A
C509       C1108   1.411       .  A
C509        C510   1.386       .  A
C509        H512   1.078       .  S
C510       C1105   1.406       .  A
C510        C513   1.445       .  S
C513        N515   1.157       .  T
C514        N516   1.158       .  T
C517        C518   1.402       .  A
C517        C522   1.409       .  A
C518        C519   1.404       .  A
C518        H523   1.085       .  S
C519        C520   1.430       .  A
C519        C526   1.440       .  S
C520        C521   1.428       .  A
C521        C522   1.406       .  A
C521        H524   1.085       .  S
C522        C525   1.443       .  S
C525        N527   1.157       .  T
C526        N528   1.157       .  T
C529        C530   1.412       .  A
C529        C534   1.434       .  A
C530        C531   1.406       .  A
C530        H535   1.078       .  S
C531        C532   1.429       .  A
C531        C538   1.444   1_565  S
C532        C533   1.411       .  A
C533        C534   1.406       .  A
C533        H536   1.081       .  S
C534        C537   1.447       .  S
C537        N539   1.157       .  T
C538        N540   1.158       .  T
C541        C542   1.417       .  A
C541        C546   1.443       .  A
C542        C543   1.394       .  A
C542        H547   1.075       .  S
C543        C544   1.411       .  A
C543        C550   1.448       .  S
C544        C545   1.397       .  A
C545        C546   1.412       .  A
C545        H548   1.085       .  S
C546        C549   1.447       .  S
C549        N551   1.158       .  T
C550        N552   1.157       .  T
C553        C901   1.576       .  S
C553       C1154   1.402       .  A
C553        C558   1.436   1_455  A
C554       C1153   1.402       .  A
C554        H559   1.085       .  S
C555       C1156   1.446   1_544  A
C555        C562   1.446       .  S
C556       C1155   1.446   1_566  A
C556        C557   1.404       .  A
C557        H560   1.085       .  S
C558        C561   1.443       .  S
C561        N563   1.158       .  T
C562        N564   1.158       .  T
C565        C566   1.394       .  A
C565       C1170   1.406   1_455  A
C566        C567   1.403       .  A
C566        H571   1.086       .  S
C567        C568   1.442       .  A
C567        C574   1.440       .  S
C568        C901   1.602       .  S
C568       C1169   1.423   1_455  A
C569       C1168   1.423       .  A
C569        C570   1.396       .  A
C569        H572   1.074       .  S
C570       C1165   1.406       .  A
C570        C573   1.446       .  S
C573        N575   1.157       .  T
C574        N576   1.158       .  T
C577        C578   1.421       .  A
C577        C582   1.430       .  A
C578        C579   1.418       .  A
C578        H583   1.076       .  S
C579        C580   1.436       .  A
C579        C586   1.445       .  S
C580        C901   1.603       .  S
C580        C581   1.395       .  A
C581        C582   1.401       .  A
C581        H584   1.067       .  S
C582        C585   1.439       .  S
C585        N587   1.155       .  T
C586       N1188   1.158   1_455  T
N588       C1186   1.158       .  T
C589        C590   1.420       .  A
C589        C594   1.426       .  A
C590        C591   1.422       .  A
C590        H595   1.079       .  S
C591        C592   1.434       .  A
C591        C598   1.445       .  S
C592        C593   1.415       .  A
C593        C594   1.401       .  A
C593        H596   1.068       .  S
C594        C597   1.447       .  S
C597        N599   1.156       .  T
C598        N600   1.157   1_565  T
C601        C889   1.594   1_455  S
C602        C829   1.584       .  S
C602        C841   1.590       .  S
C602        C877   1.599       .  S
C602        C892   1.604       .  S
In603       O605   2.203       .  S
In603       O606   2.190       .  S
In603       O614   2.173       .  S
In603       O608   2.325       .  S
In603       O610   2.261       .  S
In603       O611   2.168       .  S
In603       O612   2.241       .  S
In603       O615   2.220       .  S
C604        O610   1.262       .  A
C604        O612   1.260       .  A
C604        C817   1.493       .  S
O605        C613   1.267       .  A
O606        C613   1.258       .  A
C607        O614   1.248       .  A
C607        O608   1.273       .  A
C607        C844   1.488       .  S
C609        O611   1.257       .  A
C609        O615   1.267       .  A
C609        C622   1.433       .  S
C613        C626   1.433       .  S
In616       O618   2.215       .  S
In616       O619   2.208       .  S
In616       O627   2.242       .  S
In616       O623   2.236       .  S
C617        O623   1.257       .  A
C617        C805   1.482       .  S
O618        C626   1.265       .  A
O619        C626   1.255       .  A
C620        O627   1.253       .  A
C620        C865   1.479       .  S
C622        O624   1.259       .  A
C622        O628   1.259       .  A
C629        C796   1.595       .  S
C629        C808   1.586       .  S
C630        C757   1.612       .  S
C630        C781   1.582       .  S
C630        C793   1.615       .  S
C630        C820   1.601       .  S
C631        C721   1.565       .  S
C631        C736   1.596       .  S
C631        C856   1.587   1_545  S
C632        C709   1.578       .  S
C632        C733   1.591       .  S
C632        C745   1.587       .  S
C632        C832   1.582   1_545  S
In633       O635   2.214       .  S
In633       O636   2.213       .  S
In633       O644   2.232       .  S
In633       O638   2.282       .  S
In633       O640   2.287       .  S
In633       O641   2.218       .  S
In633       O642   2.231       .  S
In633       O645   2.200       .  S
C634        O640   1.257       .  A
C634        O642   1.254       .  A
C634        C697   1.486       .  S
O635        C643   1.263       .  A
O636        C643   1.258       .  A
C637        O644   1.252       .  A
C637        O638   1.257       .  A
C637        C712   1.475       .  S
C639        O641   1.260       .  A
C639        O645   1.265       .  A
C639        C656   1.436       .  S
C643        C652   1.434       .  S
In646       O648   2.230   1_455  S
In646       O649   2.185   1_455  S
In646       O657   2.278   1_455  S
In646       O653   2.261       .  S
C647        O655   1.253       .  A
C647        C724   1.475       .  S
O648        C656   1.267       .  A
O649        C656   1.257       .  A
C650        O657   1.262   1_455  A
C650        C688   1.471       .  S
C652        O654   1.257       .  A
C652        O658   1.263       .  A
C659        C676   1.578   1_455  S
C659        C685   1.590       .  S
C659        C769   1.564       .  S
C660        C661   1.577       .  S
C660        C673   1.572       .  S
C660        C700   1.585       .  S
C660        C760   1.561       .  S
C661        C662   1.411       .  A
C661        C666   1.429       .  A
C662        C663   1.409       .  A
C662        H667   1.079       .  S
C663        C664   1.425       .  A
C663        C670   1.444       .  S
C664        C665   1.414       .  A
C665        C666   1.398       .  A
C665        H668   1.078       .  S
C666        C669   1.445       .  S
C669        N671   1.158       .  T
C670        N672   1.157       .  T
C673        C674   1.409       .  A
C673        C678   1.436       .  A
C674        C675   1.399       .  A
C674        H679   1.083       .  S
C675        C676   1.428       .  A
C675        C682   1.443       .  S
C676        C677   1.407       .  A
C677        C678   1.401       .  A
C677        H680   1.084       .  S
C678        C681   1.442       .  S
C681        N683   1.157       .  T
C682        N684   1.157       .  T
C685        C690   1.451       .  A
C686        C687   1.388       .  A
C686        H691   1.069       .  S
C687        C694   1.447       .  S
C688        C689   1.390       .  A
C689        C690   1.411       .  A
C689        H692   1.086       .  S
C690        C693   1.442   1_455  S
C693        N695   1.158       .  T
C694        N696   1.157       .  T
C697        C698   1.401       .  A
C697        C702   1.409       .  A
C698        C699   1.413       .  A
C698        H703   1.085       .  S
C699        C700   1.431       .  A
C699        C706   1.438       .  S
C700        C701   1.418       .  A
C701        C702   1.391       .  A
C701        H704   1.082       .  S
C702        C705   1.445       .  S
C705        N707   1.156       .  T
C706        N708   1.157       .  T
C709        C710   1.427       .  A
C709        C714   1.430       .  A
C710        C711   1.410       .  A
C710        H715   1.079       .  S
C711        C712   1.400       .  A
C711        C718   1.442       .  S
C712        C713   1.396       .  A
C713        C714   1.393       .  A
C713        H716   1.087       .  S
C714        C717   1.445       .  S
C717        N719   1.157       .  T
C718        N720   1.157       .  T
C721        C722   1.415       .  A
C722        C723   1.397       .  A
C722        H727   1.075       .  S
C723        C724   1.409       .  A
C723        C730   1.446       .  S
C725        C726   1.402       .  A
C725        H728   1.085       .  S
C726        C729   1.447       .  S
C729        N731   1.157       .  T
C730        N732   1.157       .  T
C733        C734   1.417       .  A
C733        C738   1.426       .  A
C734        C735   1.409       .  A
C734        H739   1.077       .  S
C735        C736   1.428       .  A
C735        C742   1.443       .  S
C736        C737   1.419       .  A
C737        C738   1.406       .  A
C737        H740   1.078       .  S
C738        C741   1.446       .  S
C741        N743   1.158       .  T
C742        N744   1.157       .  T
C745        C746   1.412       .  A
C745        C750   1.422   1_545  A
C746        C747   1.399       .  A
C746        H751   1.080       .  S
C747        C748   1.435       .  A
C747        C754   1.448       .  S
C748        C749   1.422   1_545  A
C749        C750   1.415       .  A
C749        H752   1.072       .  S
C750        C753   1.445       .  S
C753        N755   1.157       .  T
C754        N756   1.158   1_655  T
C757        C758   1.429       .  A
C757        C762   1.443       .  A
C758        C759   1.397       .  A
C758        H763   1.074       .  S
C759        C760   1.417       .  A
C759        C766   1.448       .  S
C760        C761   1.399       .  A
C761        C762   1.411       .  A
C761        H764   1.080       .  S
C762        C765   1.433       .  S
C765        N767   1.158       .  T
C766        N768   1.158       .  T
C769        C770   1.412   1_455  A
C770       C1071   1.385       .  A
C770        H775   1.078       .  S
C771       C1070   1.385   1_554  A
C771        C772   1.416       .  A
C771        C778   1.437       .  S
C773       C1074   1.404   1_554  A
C773        H776   1.071       .  S
C774       C1073   1.404       .  A
C774        C777   1.450       .  S
C777        N779   1.158       .  T
C778        N780   1.155       .  T
C781        C782   1.412       .  A
C781        C786   1.433       .  A
C782        C783   1.403       .  A
C782        H787   1.083       .  S
C783        C784   1.440       .  A
C783        C790   1.452       .  S
C784        C785   1.407       .  A
C785        C786   1.412       .  A
C785        H788   1.080       .  S
C786        C789   1.429       .  S
C789        N791   1.154       .  T
C790        N792   1.158       .  T
C793        C794   1.424       .  A
C793        C798   1.418       .  A
C794        C795   1.400       .  A
C794        H799   1.075       .  S
C795        C796   1.420       .  A
C795        C802   1.444       .  S
C796        C797   1.416       .  A
C797        C798   1.413       .  A
C797        H800   1.083       .  S
C798        C801   1.438       .  S
C801        N803   1.156       .  T
C802        N804   1.158       .  T
C805        C806   1.402       .  A
C806        C807   1.412       .  A
C806        H811   1.085       .  S
C807        C808   1.435       .  A
C807        C814   1.440       .  S
C809        C810   1.386       .  A
C809        H812   1.078       .  S
C810        C813   1.445       .  S
C813        N815   1.157       .  T
C814        N816   1.158       .  T
C817        C818   1.402       .  A
C817        C822   1.409       .  A
C818        C819   1.404       .  A
C818        H823   1.085       .  S
C819        C820   1.430       .  A
C819        C826   1.440       .  S
C820        C821   1.428       .  A
C821        C822   1.406       .  A
C821        H824   1.085       .  S
C822        C825   1.443       .  S
C825        N827   1.157       .  T
C826        N828   1.157       .  T
C829        C830   1.412       .  A
C829        C834   1.434       .  A
C830        C831   1.406       .  A
C830        H835   1.078       .  S
C831        C832   1.429       .  A
C831        C838   1.444   1_565  S
C832        C833   1.411       .  A
C833        C834   1.406       .  A
C833        H836   1.081       .  S
C834        C837   1.447       .  S
C837        N839   1.157       .  T
C838        N840   1.158       .  T
C841        C842   1.417       .  A
C841        C846   1.443       .  A
C842        C843   1.394       .  A
C842        H847   1.075       .  S
C843        C844   1.411       .  A
C843        C850   1.448       .  S
C844        C845   1.397       .  A
C845        C846   1.412       .  A
C845        H848   1.085       .  S
C846        C849   1.447       .  S
C849        N851   1.158       .  T
C850        N852   1.157       .  T
C853        C858   1.436   1_554  A
C854       C1155   1.404   1_565  A
C854        H859   1.085       .  S
C855       C1154   1.404   1_545  A
C855        C862   1.446       .  S
C856        C857   1.404       .  A
C857       C1158   1.405       .  A
C857        H860   1.085       .  S
C858       C1157   1.405       .  A
C858        C861   1.443       .  S
C861        N863   1.158       .  T
C862        N864   1.158       .  T
C865        C866   1.394       .  A
C866        C867   1.403       .  A
C866        H871   1.086       .  S
C867        C868   1.442       .  A
C867        C874   1.440       .  S
C869        C870   1.396       .  A
C869        H872   1.074       .  S
C870        C873   1.446       .  S
C873        N875   1.157       .  T
C874        N876   1.158   1_554  T
C877        C878   1.421       .  A
C877        C882   1.430       .  A
C878        C879   1.418       .  A
C878        H883   1.076       .  S
C879        C880   1.436       .  A
C879        C886   1.445       .  S
C880        C881   1.395       .  A
C881        C882   1.401       .  A
C881        H884   1.067       .  S
C882        C885   1.439       .  S
C885        N887   1.155       .  T
C889        C890   1.420       .  A
C889        C894   1.426       .  A
C890        C891   1.422       .  A
C890        H895   1.079       .  S
C891        C892   1.434       .  A
C891        C898   1.445       .  S
C892        C893   1.415       .  A
C893        C894   1.401       .  A
C893        H896   1.068       .  S
C894        C897   1.447       .  S
C897        N899   1.156   1_655  T
C898        N900   1.157   1_565  T
C901       C1189   1.594   1_455  S
C902       C1129   1.584       .  S
C902       C1141   1.590       .  S
C902       C1177   1.599       .  S
C902       C1192   1.604       .  S
In903       O905   2.203       .  S
In903       O906   2.190       .  S
In903       O914   2.173       .  S
In903       O908   2.325       .  S
In903       O910   2.261       .  S
In903       O911   2.168       .  S
In903       O912   2.241       .  S
In903       O915   2.220       .  S
C904        O910   1.262       .  A
C904        O912   1.260       .  A
C904       C1117   1.493       .  S
O905        C913   1.267       .  A
O906        C913   1.258       .  A
C907        O914   1.248       .  A
C907        O908   1.273       .  A
C907       C1144   1.488       .  S
C909        O911   1.257       .  A
C909        O915   1.267       .  A
C909        C922   1.433       .  S
C913        C926   1.433       .  S
In916       O918   2.215       .  S
In916       O919   2.208       .  S
In916       O927   2.242       .  S
In916       O923   2.236       .  S
C917        O923   1.257       .  A
C917       C1105   1.482       .  S
O918        C926   1.265       .  A
O919        C926   1.255       .  A
C920        O927   1.253       .  A
C920       C1165   1.479       .  S
C922        O924   1.259       .  A
C922        O928   1.259       .  A
C929       C1096   1.595       .  S
C929       C1108   1.586       .  S
C930       C1057   1.612       .  S
C930       C1081   1.582       .  S
C930       C1093   1.615       .  S
C930       C1120   1.601       .  S
C931       C1021   1.565       .  S
C931       C1036   1.596       .  S
C931       C1156   1.587   1_545  S
C932       C1009   1.578       .  S
C932       C1033   1.591       .  S
C932       C1045   1.587       .  S
C932       C1132   1.582   1_545  S
In933       O935   2.214       .  S
In933       O936   2.213       .  S
In933       O944   2.232       .  S
In933       O938   2.282       .  S
In933       O940   2.287       .  S
In933       O941   2.218       .  S
In933       O942   2.231       .  S
In933       O945   2.200       .  S
C934        O940   1.257       .  A
C934        O942   1.254       .  A
C934        C997   1.486       .  S
O935        C943   1.263       .  A
O936        C943   1.258       .  A
C937        O944   1.252       .  A
C937        O938   1.257       .  A
C937       C1012   1.475       .  S
C939        O941   1.260       .  A
C939        O945   1.265       .  A
C939        C956   1.436       .  S
C943        C952   1.434       .  S
In946       O948   2.230   1_455  S
In946       O949   2.185   1_455  S
In946       O957   2.278   1_455  S
In946       O953   2.261       .  S
C947        O955   1.253       .  A
C947       C1024   1.475       .  S
O948        C956   1.267       .  A
O949        C956   1.257       .  A
C950        O957   1.262   1_455  A
C950        C988   1.471       .  S
C952        O954   1.257       .  A
C952        O958   1.263       .  A
C959        C976   1.578   1_455  S
C959        C985   1.590       .  S
C959       C1069   1.564       .  S
C960        C961   1.577       .  S
C960        C973   1.572       .  S
C960       C1000   1.585       .  S
C960       C1060   1.561       .  S
C961        C962   1.411       .  A
C961        C966   1.429       .  A
C962        C963   1.409       .  A
C962        H967   1.079       .  S
C963        C964   1.425       .  A
C963        C970   1.444       .  S
C964        C965   1.414       .  A
C965        C966   1.398       .  A
C965        H968   1.078       .  S
C966        C969   1.445       .  S
C969        N971   1.158       .  T
C970        N972   1.157       .  T
C973        C974   1.409       .  A
C973        C978   1.436       .  A
C974        C975   1.399       .  A
C974        H979   1.083       .  S
C975        C976   1.428       .  A
C975        C982   1.443       .  S
C976        C977   1.407       .  A
C977        C978   1.401       .  A
C977        H980   1.084       .  S
C978        C981   1.442       .  S
C981        N983   1.157       .  T
C982        N984   1.157       .  T
C985        C990   1.451       .  A
C986        C987   1.388       .  A
C986        H991   1.069       .  S
C987        C994   1.447       .  S
C988        C989   1.390       .  A
C989        C990   1.411       .  A
C989        H992   1.086   1_556  S
C990        C993   1.442   1_456  S
C993        N995   1.158       .  T
C994        N996   1.157       .  T
C997        C998   1.401       .  A
C997       C1002   1.409       .  A
C998        C999   1.413       .  A
C998       H1003   1.085       .  S
C999       C1000   1.431       .  A
C999       C1006   1.438       .  S
C1000      C1001   1.418       .  A
C1001      C1002   1.391       .  A
C1001      H1004   1.082       .  S
C1002      C1005   1.445       .  S
C1005      N1007   1.156       .  T
C1006      N1008   1.157       .  T
C1009      C1010   1.427       .  A
C1009      C1014   1.430       .  A
C1010      C1011   1.410       .  A
C1010      H1015   1.079       .  S
C1011      C1012   1.400       .  A
C1011      C1018   1.442       .  S
C1012      C1013   1.396       .  A
C1013      C1014   1.393       .  A
C1013      H1016   1.087       .  S
C1014      C1017   1.445       .  S
C1017      N1019   1.157       .  T
C1018      N1020   1.157       .  T
C1021      C1022   1.415       .  A
C1022      C1023   1.397       .  A
C1022      H1027   1.075       .  S
C1023      C1024   1.409       .  A
C1023      C1030   1.446       .  S
C1025      C1026   1.402       .  A
C1025      H1028   1.085       .  S
C1026      C1029   1.447       .  S
C1029      N1031   1.157       .  T
C1030      N1032   1.157       .  T
C1033      C1034   1.417       .  A
C1033      C1038   1.426       .  A
C1034      C1035   1.409       .  A
C1034      H1039   1.077       .  S
C1035      C1036   1.428       .  A
C1035      C1042   1.443       .  S
C1036      C1037   1.419       .  A
C1037      C1038   1.406       .  A
C1037      H1040   1.078       .  S
C1038      C1041   1.446       .  S
C1041      N1043   1.158       .  T
C1042      N1044   1.157   1_556  T
C1045      C1046   1.412       .  A
C1045      C1050   1.422   1_545  A
C1046      C1047   1.399       .  A
C1046      H1051   1.080       .  S
C1047      C1048   1.435       .  A
C1047      C1054   1.448       .  S
C1048      C1049   1.422   1_545  A
C1049      C1050   1.415       .  A
C1049      H1052   1.072       .  S
C1050      C1053   1.445       .  S
C1053      N1055   1.157       .  T
C1054      N1056   1.158   1_655  T
C1057      C1058   1.429       .  A
C1057      C1062   1.443       .  A
C1058      C1059   1.397       .  A
C1058      H1063   1.074       .  S
C1059      C1060   1.417       .  A
C1059      C1066   1.448       .  S
C1060      C1061   1.399       .  A
C1061      C1062   1.411       .  A
C1061      H1064   1.080       .  S
C1062      C1065   1.433       .  S
C1065      N1067   1.158       .  T
C1066      N1068   1.158       .  T
C1069      C1070   1.412   1_455  A
C1070      H1075   1.078       .  S
C1071      C1072   1.416       .  A
C1071      C1078   1.437       .  S
C1073      H1076   1.071       .  S
C1074      C1077   1.450       .  S
C1077      N1079   1.158       .  T
C1078      N1080   1.155       .  T
C1081      C1082   1.412       .  A
C1081      C1086   1.433       .  A
C1082      C1083   1.403       .  A
C1082      H1087   1.083       .  S
C1083      C1084   1.440       .  A
C1083      C1090   1.452       .  S
C1084      C1085   1.407       .  A
C1085      C1086   1.412       .  A
C1085      H1088   1.080       .  S
C1086      C1089   1.429       .  S
C1089      N1091   1.154       .  T
C1090      N1092   1.158       .  T
C1093      C1094   1.424       .  A
C1093      C1098   1.418       .  A
C1094      C1095   1.400       .  A
C1094      H1099   1.075       .  S
C1095      C1096   1.420       .  A
C1095      C1102   1.444       .  S
C1096      C1097   1.416       .  A
C1097      C1098   1.413       .  A
C1097      H1100   1.083       .  S
C1098      C1101   1.438       .  S
C1101      N1103   1.156       .  T
C1102      N1104   1.158       .  T
C1105      C1106   1.402       .  A
C1106      C1107   1.412       .  A
C1106      H1111   1.085       .  S
C1107      C1108   1.435       .  A
C1107      C1114   1.440       .  S
C1109      C1110   1.386       .  A
C1109      H1112   1.078       .  S
C1110      C1113   1.445       .  S
C1113      N1115   1.157       .  T
C1114      N1116   1.158       .  T
C1117      C1118   1.402       .  A
C1117      C1122   1.409       .  A
C1118      C1119   1.404       .  A
C1118      H1123   1.085       .  S
C1119      C1120   1.430       .  A
C1119      C1126   1.440       .  S
C1120      C1121   1.428       .  A
C1121      C1122   1.406       .  A
C1121      H1124   1.085       .  S
C1122      C1125   1.443       .  S
C1125      N1127   1.157       .  T
C1126      N1128   1.157       .  T
C1129      C1130   1.412       .  A
C1129      C1134   1.434       .  A
C1130      C1131   1.406       .  A
C1130      H1135   1.078       .  S
C1131      C1132   1.429       .  A
C1131      C1138   1.444   1_565  S
C1132      C1133   1.411       .  A
C1133      C1134   1.406       .  A
C1133      H1136   1.081       .  S
C1134      C1137   1.447       .  S
C1137      N1139   1.157       .  T
C1138      N1140   1.158       .  T
C1141      C1142   1.417       .  A
C1141      C1146   1.443       .  A
C1142      C1143   1.394       .  A
C1142      H1147   1.075       .  S
C1143      C1144   1.411       .  A
C1143      C1150   1.448       .  S
C1144      C1145   1.397       .  A
C1145      C1146   1.412       .  A
C1145      H1148   1.085       .  S
C1146      C1149   1.447       .  S
C1149      N1151   1.158       .  T
C1150      N1152   1.157       .  T
C1153      C1158   1.436       .  A
C1154      H1159   1.085       .  S
C1155      C1162   1.446       .  S
C1156      C1157   1.404       .  A
C1157      H1160   1.085       .  S
C1158      C1161   1.443       .  S
C1161      N1163   1.158       .  T
C1162      N1164   1.158       .  T
C1165      C1166   1.394       .  A
C1166      C1167   1.403       .  A
C1166      H1171   1.086       .  S
C1167      C1168   1.442       .  A
C1167      C1174   1.440       .  S
C1169      C1170   1.396       .  A
C1169      H1172   1.074       .  S
C1170      C1173   1.446       .  S
C1173      N1175   1.157       .  T
C1174      N1176   1.158       .  T
C1177      C1178   1.421       .  A
C1177      C1182   1.430       .  A
C1178      C1179   1.418       .  A
C1178      H1183   1.076       .  S
C1179      C1180   1.436       .  A
C1179      C1186   1.445       .  S
C1180      C1181   1.395       .  A
C1181      C1182   1.401       .  A
C1181      H1184   1.067       .  S
C1182      C1185   1.439       .  S
C1185      N1187   1.155       .  T
C1189      C1190   1.420       .  A
C1189      C1194   1.426       .  A
C1190      C1191   1.422       .  A
C1190      H1195   1.079       .  S
C1191      C1192   1.434       .  A
C1191      C1198   1.445       .  S
C1192      C1193   1.415       .  A
C1193      C1194   1.401       .  A
C1193      H1196   1.068       .  S
C1194      C1197   1.447       .  S
C1197      N1199   1.156   1_655  T
C1198      N1200   1.157   1_565  T
