geometry optimzed in LAMMPS
_audit_creation_date              2020-11-30 
_audit_creation_method            'lammps2cif' 
_symmetry_space_group_name_H-M    'P1' 
_symmetry_Int_Tables_number       1 
_symmetry_cell_setting            triclinic 
loop_ 
_symmetry_equiv_pos_as_xyz 
  x,y,z 
_cell_length_a                    55.48036795 
_cell_length_b                    55.219156211778476 
_cell_length_c                    45.42390567491957 
_cell_angle_alpha                 90.08980125466319 
_cell_angle_beta                  89.96049931595127 
_cell_angle_gamma                 89.7588617810779 
loop_ 
_atom_site_label 
_atom_site_type_symbol 
_atom_site_fract_x 
_atom_site_fract_y 
_atom_site_fract_z 
_atom_site_charge 
C1          C  0.30078389  0.17086561  0.34970906     0.46500
H2          H  0.28708226  0.15630756  0.34799115    -0.02500
C3          C  0.33284582  0.20515740  0.35357865     0.46600
H4          H  0.34637817  0.21989136  0.35489265    -0.02500
C5          C  0.32206521  0.16452153  0.37008312    -0.16200
C6          C  0.31260987  0.17737285  0.32029336    -0.15900
C7          C  0.29064759  0.19476775  0.36187444    -0.16300
C8          C  0.33915400  0.18255743  0.37210479    -0.16300
C9          C  0.32939525  0.19540108  0.32225103    -0.15800
C10         C  0.30746429  0.21283506  0.36361592    -0.16200
N11         N  0.28777239  0.09350101  0.07341715    -0.26200
N12         N  0.27338877  0.11246410  0.07074922    -0.34100
C13         C  0.27261118  0.12448389  0.09640001     0.02100
C14         C  0.28714060  0.11247420  0.11639913     0.08200
C15         C  0.29645810  0.09279865  0.10109269    -0.04900
H16         H  0.26238559  0.14092127  0.10007707     0.08800
H17         H  0.30922180  0.07948624  0.10906598     0.10000
Cu18       Cu  0.25678971  0.12220027  0.03192426     0.44200
Cu19       Cu  0.29529698  0.07096369  0.03810221     0.42000
Cu20       Cu  0.27210403  0.09070825  0.96521593     0.43900
N21         N  0.24496410  0.13302943  0.99097248    -0.33600
N22         N  0.25083294  0.12223462  0.96600292    -0.27800
C23         C  0.24164743  0.13532905  0.94351417    -0.03900
C24         C  0.22946638  0.15536518  0.95503428     0.08300
C25         C  0.23200108  0.15301757  0.98524603     0.02100
H26         H  0.24451335  0.13104383  0.92054282     0.09700
H27         H  0.22541077  0.16522111  0.00207585     0.08800
N28         N  0.29189543  0.05883949  0.97297349    -0.35000
N29         N  0.29949047  0.05172102  0.99923186    -0.27200
C30         C  0.30983541  0.02973732  0.99683871    -0.02500
C31         C  0.30908463  0.02266030  0.96767982     0.06100
C32         C  0.29761824  0.04154844  0.95314697     0.04200
H33         H  0.31714689  0.01955479  0.01508719     0.09300
H34         H  0.29285428  0.04220976  0.93007345     0.08200
N35         N  0.41135460  0.22547888  0.07549858    -0.26200
N36         N  0.39100660  0.23763903  0.07247702    -0.34100
C37         C  0.37961638  0.23874960  0.09847775     0.02100
C38         C  0.39343852  0.22670955  0.11921343     0.08200
C39         C  0.41359341  0.21857247  0.10384855    -0.04900
H40         H  0.36230684  0.24737347  0.10185807     0.08800
H41         H  0.42822141  0.20759802  0.11226933     0.10000
Cu42       Cu  0.37887709  0.25052354  0.03269570     0.44200
Cu43       Cu  0.43301619  0.21812818  0.03918941     0.42000
Cu44       Cu  0.41088395  0.23822937  0.96524318     0.43900
N45         N  0.36670055  0.26097974  0.99190621    -0.33600
N46         N  0.37777517  0.25653751  0.96671150    -0.27800
C47         C  0.36409430  0.26548206  0.94462925    -0.03900
C48         C  0.34363259  0.27624215  0.95679840     0.08300
C49         C  0.34597680  0.27273531  0.98677286     0.02100
H50         H  0.36869062  0.26427510  0.92154351     0.09700
H51         H  0.33322954  0.27762017  0.00380628     0.08800
N52         N  0.44347567  0.22004813  0.97315989    -0.35000
N53         N  0.45101223  0.21299584  0.99945863    -0.27200
C54         C  0.47282975  0.20259619  0.99675446    -0.02500
C55         C  0.47966062  0.20301294  0.96741921     0.06100
C56         C  0.46050393  0.21426459  0.95311277     0.04200
H57         H  0.48306169  0.19549537  0.01507886     0.09300
H58         H  0.45929628  0.21880120  0.93003297     0.08200
C59         C  0.30857939  0.85497409  0.85143007     0.46500
H60         H  0.29517822  0.86996045  0.85068651    -0.02500
C61         C  0.33922546  0.81913081  0.85327103     0.46600
H62         H  0.35215628  0.80370851  0.85383302    -0.02500
C63         C  0.33093631  0.86023910  0.87069915    -0.16200
C64         C  0.29803309  0.83150096  0.86375967    -0.15900
C65         C  0.31875173  0.84805389  0.82111640    -0.16300
C66         C  0.34711695  0.84116836  0.87165181    -0.16300
C67         C  0.31412177  0.81267329  0.86480637    -0.15800
C68         C  0.33489223  0.82913376  0.82222850    -0.16200
N69         N  0.40979807  0.78600041  0.57848959    -0.26200
N70         N  0.39083345  0.77161346  0.57796650    -0.34100
C71         C  0.38277913  0.76859749  0.60561647     0.02100
C72         C  0.39721749  0.78190461  0.62449316     0.08200
C73         C  0.41426943  0.79260055  0.60645477    -0.04900
H74         H  0.36678788  0.75851210  0.61133302     0.08800
H75         H  0.42865366  0.80462473  0.61294265     0.10000
Cu76       Cu  0.37515322  0.75870083  0.53958464     0.44200
Cu77       Cu  0.42814764  0.79677773  0.54113383     0.42000
Cu78       Cu  0.40483460  0.77431927  0.47159615     0.43900
N79         N  0.36135017  0.75027098  0.49836115    -0.33600
N80         N  0.37209764  0.75607219  0.47340526    -0.27800
C81         C  0.35819702  0.74887963  0.45076441    -0.03900
C82         C  0.33761302  0.73793425  0.46192281     0.08300
C83         C  0.34035906  0.73926465  0.49227398     0.02100
H84         H  0.36254673  0.75216207  0.42789278     0.09700
H85         H  0.32794819  0.73284244  0.50888276     0.08800
N86         N  0.43725284  0.79285819  0.47592728    -0.35000
N87         N  0.44531442  0.80159446  0.50116022    -0.27200
C88         C  0.46689892  0.81194161  0.49672075    -0.02500
C89         C  0.47295691  0.80940788  0.46730487     0.06100
C90         C  0.45364454  0.79727318  0.45477848     0.04200
H91         H  0.47785691  0.81975037  0.51395356     0.09300
H92         H  0.45163922  0.79184224  0.43204012     0.08200
N93         N  0.28255902  0.92812563  0.57305627    -0.26200
N94         N  0.27578300  0.90552596  0.56865234    -0.34100
C95         C  0.27550853  0.89373373  0.59447983     0.02100
C96         C  0.28246065  0.90952852  0.61669755     0.08200
C97         C  0.28674449  0.93130322  0.60206435    -0.04900
H98         H  0.27091593  0.87482672  0.59663332     0.08800
H99         H  0.29236090  0.94830124  0.61152458     0.10000
Cu100      Cu  0.26692386  0.89139988  0.52786760     0.44200
Cu101      Cu  0.28598201  0.95289556  0.53847535     0.42000
Cu102      Cu  0.26688178  0.93017060  0.46506113     0.43900
N103        N  0.25584905  0.88009456  0.48660789    -0.33600
N104        N  0.25483958  0.89434286  0.46330152    -0.27800
C105        C  0.24549465  0.88167224  0.44056084    -0.03900
C106        C  0.24082687  0.85824563  0.45009158     0.08300
C107        C  0.24758861  0.85804868  0.47940129     0.02100
H108        H  0.24253740  0.88886198  0.41872591     0.09700
H109        H  0.24601144  0.84315364  0.49465573     0.08800
N110        N  0.28068732  0.96474787  0.47332854    -0.35000
N111        N  0.28767030  0.97290079  0.49939499    -0.27200
C112        C  0.29544022  0.99587250  0.49635055    -0.02500
C113        C  0.29307212  0.00269434  0.46708912     0.06100
C114        C  0.28378386  0.98234699  0.45322455     0.04200
H115        H  0.30189464  0.00699274  0.51433250     0.09300
H116        H  0.27974009  0.98026481  0.43007739     0.08200
C117        C  0.66894085  0.85986068  0.34796395     0.46500
H118        H  0.68200976  0.87505353  0.34782698    -0.02500
C119        C  0.63877737  0.82379229  0.34851399     0.46600
H120        H  0.62606092  0.80829604  0.34855414    -0.02500
C121        C  0.64658639  0.86433249  0.36748623    -0.16200
C122        C  0.65900806  0.85344012  0.31742776    -0.15900
C123        C  0.67994313  0.83604658  0.35924199    -0.16300
C124        C  0.63083508  0.84514837  0.36816096    -0.16300
C125        C  0.64266456  0.83476761  0.31788886    -0.15800
C126        C  0.66403445  0.81712913  0.35943842    -0.16200
N127        N  0.70704812  0.92391322  0.07134842    -0.26200
N128        N  0.71635276  0.90197458  0.06875137    -0.34100
C129        C  0.71785614  0.89179822  0.09552416     0.02100
C130        C  0.70899985  0.90812459  0.11608657     0.08200
C131        C  0.70220053  0.92827202  0.09988678    -0.04900
H132        H  0.72375996  0.87338970  0.09942828     0.08800
H133        H  0.69387691  0.94470876  0.10811279     0.10000
Cu134      Cu  0.72421268  0.88619325  0.02859478     0.44200
Cu135      Cu  0.70032724  0.94590182  0.03539278     0.42000
Cu136      Cu  0.70968614  0.91959157  0.96200014     0.43900
N137        N  0.72869383  0.87244764  0.98659545    -0.33600
N138        N  0.72359027  0.88422261  0.96204329    -0.27800
C139        C  0.72898051  0.86974341  0.93894190    -0.03900
C140        C  0.73758178  0.84775028  0.94961460     0.08300
C141        C  0.73723591  0.85034538  0.97992136     0.02100
H142        H  0.72671149  0.87479850  0.91613072     0.09700
H143        H  0.74330645  0.83737875  0.99613012     0.08800
N144        N  0.69733521  0.95499233  0.96975566    -0.35000
N145        N  0.69460830  0.96440339  0.99636809    -0.27200
C146        C  0.68763287  0.98766360  0.99393287    -0.02500
C147        C  0.68555753  0.99331088  0.96437951     0.06100
C148        C  0.69184292  0.97211501  0.94967281     0.04200
H149        H  0.68423160  0.99955904  0.01239589     0.09300
H150        H  0.69304061  0.96951195  0.92612045     0.08200
N151        N  0.58174322  0.79250230  0.06706651    -0.26200
N152        N  0.60076024  0.77808911  0.06578504    -0.34100
C153        C  0.61087376  0.77660664  0.09258999     0.02100
C154        C  0.59759389  0.79082011  0.11189796     0.08200
C155        C  0.57916040  0.80054014  0.09489266    -0.04900
H156        H  0.62652110  0.76564299  0.09757170     0.08800
H157        H  0.56507208  0.81276787  0.10209600     0.10000
Cu158      Cu  0.61213698  0.76132463  0.02756358     0.44200
Cu159      Cu  0.56040963  0.80001122  0.03051945     0.42000
Cu160      Cu  0.57876362  0.77352540  0.96017956     0.43900
N161        N  0.62214984  0.74848187  0.98663433    -0.33600
N162        N  0.61071262  0.75343534  0.96181301    -0.27800
C163        C  0.62320393  0.74365709  0.93924282    -0.03900
C164        C  0.64328046  0.73185811  0.95056075     0.08300
C165        C  0.64191134  0.73526147  0.98064815     0.02100
H166        H  0.61804792  0.74506606  0.91634102     0.09700
H167        H  0.65484581  0.72934299  0.99697506     0.08800
N168        N  0.54708264  0.79352176  0.96623083    -0.35000
N169        N  0.54065492  0.80312982  0.99175513    -0.27200
C170        C  0.51903609  0.81394249  0.98873575    -0.02500
C171        C  0.51126215  0.81114160  0.95990375     0.06100
C172        C  0.52962602  0.79802802  0.94630936     0.04200
H173        H  0.50954628  0.82291595  0.00648795     0.09300
H174        H  0.52995393  0.79137439  0.92393383     0.08200
C175        C  0.68042896  0.16457757  0.85297759     0.46500
H176        H  0.69471351  0.15044043  0.85187199    -0.02500
C177        C  0.64764494  0.19844279  0.85513610     0.46600
H178        H  0.63374639  0.21298442  0.85578285    -0.02500
C179        C  0.65893938  0.15808169  0.87301215    -0.16200
C180        C  0.68975286  0.18895046  0.86445059    -0.15900
C181        C  0.66905034  0.17022919  0.82309078    -0.16300
C182        C  0.64172950  0.17623836  0.87447351    -0.16300
C183        C  0.67253564  0.20679541  0.86562034    -0.15800
C184        C  0.65183077  0.18809084  0.82414184    -0.16200
N185        N  0.57409879  0.20591315  0.57586501    -0.26200
N186        N  0.59410232  0.21860128  0.57309799    -0.34100
C187        C  0.60379528  0.22230452  0.59975979     0.02100
C188        C  0.58928438  0.21145126  0.62063081     0.08200
C189        C  0.57069293  0.20094560  0.60466250    -0.04900
H190        H  0.62041148  0.23200083  0.60356131     0.08800
H191        H  0.55552915  0.19097364  0.61339821     0.10000
Cu192      Cu  0.60768872  0.23053978  0.53345330     0.44200
Cu193      Cu  0.55233349  0.19806334  0.53956322     0.42000
Cu194      Cu  0.57438456  0.22119652  0.46727312     0.43900
N195        N  0.62024924  0.24092918  0.49266666    -0.33600
N196        N  0.60822544  0.23793815  0.46785015    -0.27800
C197        C  0.62177145  0.24647293  0.44544087    -0.03900
C198        C  0.64341899  0.25498327  0.45689528     0.08300
C199        C  0.64163475  0.25112105  0.48689203     0.02100
H200        H  0.61655602  0.24584912  0.42251362     0.09700
H201        H  0.65497146  0.25538653  0.50347419     0.08800
N202        N  0.54103672  0.20436291  0.47423883    -0.35000
N203        N  0.53318841  0.19627014  0.49994911    -0.27200
C204        C  0.51047541  0.18814361  0.49665704    -0.02500
C205        C  0.50358353  0.19105723  0.46749975     0.06100
C206        C  0.52351800  0.20138470  0.45402133     0.04200
H207        H  0.49960216  0.18111234  0.51440135     0.09300
H208        H  0.52484267  0.20745618  0.43147509     0.08200
N209        N  0.70814067  0.08896553  0.57653996    -0.26200
N210        N  0.72235511  0.10800832  0.57447946    -0.34100
C211        C  0.72233789  0.12000398  0.60019865     0.02100
C212        C  0.70724340  0.10812723  0.61967829     0.08200
C213        C  0.69872291  0.08831029  0.60393091    -0.04900
H214        H  0.73257793  0.13629064  0.60420199     0.08800
H215        H  0.68601058  0.07488388  0.61149280     0.10000
Cu216      Cu  0.73970813  0.11825178  0.53624245     0.44200
Cu217      Cu  0.70160502  0.06633651  0.54056593     0.42000
Cu218      Cu  0.72462750  0.08814911  0.46876309     0.43900
N219        N  0.75199596  0.12948326  0.49558225    -0.33600
N220        N  0.74590149  0.11918452  0.47041644    -0.27800
C221        C  0.75488815  0.13247549  0.44810094    -0.03900
C222        C  0.76740790  0.15193737  0.45994371     0.08300
C223        C  0.76508876  0.14936108  0.49010690     0.02100
H224        H  0.75204827  0.12858510  0.42503735     0.09700
H225        H  0.77116275  0.16180429  0.50689729     0.08800
N226        N  0.70507336  0.05631620  0.47477360    -0.35000
N227        N  0.69725827  0.04827932  0.50047665    -0.27200
C228        C  0.68633272  0.02681369  0.49635457    -0.02500
C229        C  0.68723599  0.02085163  0.46663053     0.06100
C230        C  0.69918874  0.04021712  0.45371584     0.04200
H231        H  0.67867493  0.01617486  0.51393627     0.09300
H232        H  0.70335317  0.04273065  0.43071895     0.08200
C233        C  0.80040706  0.35201743  0.35806877     0.46500
H234        H  0.78492441  0.36482314  0.35766142    -0.02500
C235        C  0.83642169  0.32158072  0.35747959     0.46600
H236        H  0.85143569  0.30821577  0.35702345    -0.02500
C237        C  0.82244225  0.36093263  0.37574948    -0.16200
C238        C  0.79432481  0.32709103  0.37102170    -0.15900
C239        C  0.81047290  0.34692951  0.32726249    -0.16300
C240        C  0.84162752  0.34479101  0.37540373    -0.16300
C241        C  0.81332961  0.31120154  0.37089135    -0.15800
C242        C  0.82918097  0.33074813  0.32691931    -0.16200
N243        N  0.91234973  0.28639466  0.08352762    -0.26200
N244        N  0.89205027  0.27423773  0.08060897    -0.34100
C245        C  0.88010277  0.27445167  0.10626921     0.02100
C246        C  0.89343528  0.28744003  0.12651184     0.08200
C247        C  0.91396207  0.29457063  0.11143912    -0.04900
H248        H  0.86251486  0.26646572  0.10956829     0.08800
H249        H  0.92822992  0.30607746  0.11962088     0.10000
Cu250      Cu  0.87964208  0.26100894  0.04102824     0.44200
Cu251      Cu  0.93445976  0.29334291  0.04760850     0.42000
Cu252      Cu  0.90808351  0.28053876  0.97412862     0.43900
N253        N  0.86587455  0.25400610  0.99979964    -0.33600
N254        N  0.87564082  0.26157384  0.97496104    -0.27800
C255        C  0.86123756  0.25501842  0.95243978    -0.03900
C256        C  0.84136369  0.24294892  0.96382799     0.08300
C257        C  0.84516424  0.24254533  0.99393387     0.02100
H258        H  0.86471487  0.25919959  0.92957645     0.09700
H259        H  0.83380840  0.23455078  0.01060180     0.08800
N260        N  0.94200330  0.29568596  0.98128459    -0.35000
N261        N  0.95161900  0.29937021  0.00758488    -0.27200
C262        C  0.97418744  0.30771370  0.00422232    -0.02500
C263        C  0.97908852  0.30954174  0.97443393     0.06100
C264        C  0.95820584  0.30191296  0.96055723     0.04200
H265        H  0.98604110  0.31229979  0.02222481     0.09300
H266        H  0.95525023  0.30031505  0.93709920     0.08200
N267        N  0.78158543  0.42726973  0.08018417    -0.26200
N268        N  0.76876448  0.40734482  0.07701570    -0.34100
C269        C  0.76694788  0.39615318  0.10310417     0.02100
C270        C  0.77918750  0.40962486  0.12397266     0.08200
C271        C  0.78821686  0.42934514  0.10861823    -0.04900
H272        H  0.75771861  0.37915470  0.10644450     0.08800
H273        H  0.79963266  0.44356082  0.11710734     0.10000
Cu274      Cu  0.75591151  0.39495281  0.03714053     0.44200
Cu275      Cu  0.79053835  0.44912091  0.04459809     0.42000
Cu276      Cu  0.77389432  0.42508428  0.97108685     0.43900
N277        N  0.74667658  0.38279766  0.99567572    -0.33600
N278        N  0.75357534  0.39325071  0.97095202    -0.27800
C279        C  0.74517834  0.38012348  0.94806588    -0.03900
C280        C  0.73215861  0.36064635  0.95909166     0.08300
C281        C  0.73373179  0.36299169  0.98937428     0.02100
H282        H  0.74821391  0.38448060  0.92516276     0.09700
H283        H  0.72663675  0.35079630  0.00582166     0.08800
N284        N  0.79168896  0.45786382  0.97862689    -0.35000
N285        N  0.79725956  0.46659683  0.00488499    -0.27200
C286        C  0.80699061  0.48872563  0.00164690    -0.02500
C287        C  0.80773928  0.49440065  0.97186674     0.06100
C288        C  0.79788001  0.47422422  0.95808512     0.04200
H289        H  0.81214900  0.50008269  0.01994718     0.09300
H290        H  0.79486086  0.47168074  0.93477018     0.08200
C291        C  0.17762467  0.35269134  0.85716396     0.46500
H292        H  0.19188018  0.36674589  0.85798085    -0.02500
C293        C  0.14450395  0.31951765  0.85475123     0.46600
H294        H  0.13068765  0.30505152  0.85361523    -0.02500
C295        C  0.15504260  0.35889526  0.87550807    -0.16200
C296        C  0.16826061  0.34794869  0.82594389    -0.15900
C297        C  0.18598513  0.32790354  0.86851584    -0.16300
C298        C  0.13730258  0.34144823  0.87398581    -0.16300
C299        C  0.15069428  0.33053311  0.82479730    -0.15800
C300        C  0.16859348  0.31036084  0.86700822    -0.16200
N301        N  0.20481226  0.43396551  0.58404886    -0.26200
N302        N  0.21462179  0.41237264  0.58008733    -0.34100
C303        C  0.21734623  0.40138314  0.60619637     0.02100
C304        C  0.20883089  0.41668467  0.62800956     0.08200
C305        C  0.20082135  0.43718438  0.61311368    -0.04900
H306        H  0.22402707  0.38309830  0.60885018     0.08800
H307        H  0.19241244  0.45308493  0.62264608     0.10000
Cu308      Cu  0.22239713  0.39773469  0.53946379     0.44200
Cu309      Cu  0.19675959  0.45674322  0.54856318     0.42000
Cu310      Cu  0.20524398  0.42943941  0.47436852     0.43900
N311        N  0.22889702  0.38468194  0.49773503    -0.33600
N312        N  0.22270380  0.39604699  0.47332806    -0.27800
C313        C  0.22975628  0.38256021  0.45005489    -0.03900
C314        C  0.24063862  0.36158310  0.46055245     0.08300
C315        C  0.23988418  0.36376944  0.49088216     0.02100
H316        H  0.22688823  0.38748751  0.42730326     0.09700
H317        H  0.24709080  0.35130371  0.50698636     0.08800
N318        N  0.19125633  0.46386894  0.48232455    -0.35000
N319        N  0.18927053  0.47411934  0.50861304    -0.27200
C320        C  0.18145215  0.49708163  0.50512225    -0.02500
C321        C  0.17795268  0.50134318  0.47534950     0.06100
C322        C  0.18434986  0.47987016  0.46162676     0.04200
H323        H  0.17845188  0.50971993  0.52294592     0.09300
H324        H  0.18482633  0.47638155  0.43819851     0.08200
N325        N  0.07123451  0.29413885  0.57908251    -0.26200
N326        N  0.09139143  0.28166494  0.57583821    -0.34100
C327        C  0.10257740  0.28006692  0.60191968     0.02100
C328        C  0.08892498  0.29225859  0.62289014     0.08200
C329        C  0.06909895  0.30097668  0.60740600    -0.04900
H330        H  0.11962998  0.27088445  0.60505549     0.08800
H331        H  0.05453327  0.31215940  0.61558065     0.10000
Cu332      Cu  0.10367582  0.26857636  0.53592461     0.44200
Cu333      Cu  0.04842930  0.30177879  0.54422509     0.42000
Cu334      Cu  0.06963796  0.28326782  0.47078924     0.43900
N335        N  0.11383888  0.25776614  0.49414776    -0.33600
N336        N  0.10187538  0.26337537  0.46993377    -0.27800
C337        C  0.11390676  0.25418478  0.44658658    -0.03900
C338        C  0.13421681  0.24196807  0.45675293     0.08300
C339        C  0.13354063  0.24480809  0.48701964     0.02100
H340        H  0.10831826  0.25625438  0.42393624     0.09700
H341        H  0.14682211  0.23863327  0.50275185     0.08800
N342        N  0.03715613  0.30159972  0.47901669    -0.35000
N343        N  0.02939215  0.30755843  0.50563494    -0.27200
C344        C  0.00745944  0.31787720  0.50346796    -0.02500
C345        C  0.00104790  0.31869639  0.47406572     0.06100
C346        C  0.02036237  0.30832645  0.45919366     0.04200
H347        H  0.99704712  0.32440954  0.52198500     0.09300
H348        H  0.02178261  0.30524204  0.43571222     0.08200
C349        C  0.17228691  0.66466836  0.35230023     0.46500
H350        H  0.18532528  0.64935402  0.35143293    -0.02500
C351        C  0.14215130  0.70102802  0.35389950     0.46600
H352        H  0.12940150  0.71660447  0.35435217    -0.02500
C353        C  0.15054974  0.66032212  0.37274859    -0.16200
C354        C  0.18361823  0.68854051  0.36297873    -0.15900
C355        C  0.16084669  0.67053514  0.32244697    -0.16300
C356        C  0.13469541  0.67965717  0.37370990    -0.16300
C357        C  0.16767119  0.70759834  0.36384245    -0.15800
C358        C  0.14529286  0.68988934  0.32323532    -0.16200
N359        N  0.07776306  0.71558068  0.07079395    -0.26200
N360        N  0.09735764  0.72901806  0.06976558    -0.34100
C361        C  0.10636127  0.73145922  0.09697825     0.02100
C362        C  0.09173808  0.71904543  0.11648061     0.08200
C363        C  0.07374289  0.70906967  0.09898425    -0.04900
H364        H  0.12244996  0.74160212  0.10207299     0.08800
H365        H  0.05848820  0.69849580  0.10616420     0.10000
Cu366      Cu  0.11075330  0.74435856  0.03184018     0.44200
Cu367      Cu  0.05749342  0.70847555  0.03320142     0.42000
Cu368      Cu  0.07901201  0.73690416  0.96389205     0.43900
N369        N  0.12291133  0.75810660  0.99241830    -0.33600
N370        N  0.11166705  0.75540357  0.96702876    -0.27800
C371        C  0.12520794  0.76545469  0.94564055    -0.03900
C372        C  0.14606589  0.77471244  0.95830240     0.08300
C373        C  0.14369860  0.76987243  0.98806175     0.02100
H374        H  0.12059410  0.76530906  0.92251500     0.09700
H375        H  0.15614203  0.77437269  0.00550403     0.08800
N376        N  0.04709028  0.71725833  0.96825008    -0.35000
N377        N  0.03969259  0.70681366  0.99285728    -0.27200
C378        C  0.01821242  0.69632424  0.98798001    -0.02500
C379        C  0.01159355  0.70030081  0.95895295     0.06100
C380        C  0.03038040  0.71371742  0.94721044     0.04200
H381        H  0.00773488  0.68741783  0.00484323     0.09300
H382        H  0.03171649  0.72071398  0.92503071     0.08200
N383        N  0.18169376  0.59906327  0.06872979    -0.26200
N384        N  0.19447119  0.61907836  0.06696433    -0.34100
C385        C  0.19498136  0.62989197  0.09343799     0.02100
C386        C  0.18176833  0.61610834  0.11323983     0.08200
C387        C  0.17357234  0.59661401  0.09652704    -0.04900
H388        H  0.20453714  0.64652018  0.09777943     0.08800
H389        H  0.16238057  0.58180276  0.10363231     0.10000
Cu390      Cu  0.21012977  0.63088090  0.02834619     0.44200
Cu391      Cu  0.17682367  0.57648508  0.03250666     0.42000
Cu392      Cu  0.20277607  0.59608581  0.96126925     0.43900
N393        N  0.22336969  0.64149147  0.98789783    -0.33600
N394        N  0.22123845  0.62901638  0.96316506    -0.27800
C395        C  0.23167201  0.64167639  0.94118684    -0.03900
C396        C  0.24042070  0.66319010  0.95280905     0.08300
C397        C  0.23477634  0.66235708  0.98238545     0.02100
H398        H  0.23202302  0.63610009  0.91834444     0.09700
H399        H  0.23844632  0.67612193  0.99876139     0.08800
N400        N  0.18441600  0.56350507  0.96791342    -0.35000
N401        N  0.17559761  0.55650186  0.99361276    -0.27200
C402        C  0.16673700  0.53399142  0.99085332    -0.02500
C403        C  0.16988379  0.52631395  0.96205403     0.06100
C404        C  0.18110953  0.54559068  0.94812721     0.04200
H405        H  0.15897737  0.52376128  0.00878812     0.09300
H406        H  0.18755688  0.54612233  0.92565438     0.08200
C407        C  0.81016008  0.65547016  0.84883206     0.46500
H408        H  0.79813425  0.63942563  0.84872308    -0.02500
C409        C  0.83791865  0.69349765  0.84947970     0.46600
H410        H  0.84954723  0.70980205  0.84908540    -0.02500
C411        C  0.83308859  0.65224494  0.86763224    -0.16200
C412        C  0.81915718  0.66293950  0.81815709    -0.15900
C413        C  0.79800072  0.67829391  0.86129620    -0.16300
C414        C  0.84785603  0.67230632  0.86810959    -0.16300
C415        C  0.83412765  0.68270421  0.81877782    -0.15800
C416        C  0.81237681  0.69837675  0.86117344    -0.16200
N417        N  0.78474371  0.59614361  0.56595684    -0.26200
N418        N  0.77002479  0.61501185  0.56580588    -0.34100
C419        C  0.76774163  0.62354804  0.59337911     0.02100
C420        C  0.78170563  0.60940848  0.61197563     0.08200
C421        C  0.79238055  0.59228434  0.59371582    -0.04900
H422        H  0.75720930  0.63937336  0.59922672     0.08800
H423        H  0.80467551  0.57795721  0.60014590     0.10000
Cu424      Cu  0.75451256  0.62904050  0.52795991     0.44200
Cu425      Cu  0.79291070  0.57658861  0.52806911     0.42000
Cu426      Cu  0.76310000  0.59651070  0.45999043     0.43900
N427        N  0.74226305  0.64136463  0.48755345    -0.33600
N428        N  0.74479543  0.62929241  0.46258726    -0.27800
C429        C  0.73572013  0.64270766  0.44042151    -0.03900
C430        C  0.72737533  0.66437876  0.45206140     0.08300
C431        C  0.73185633  0.66286599  0.48195706     0.02100
H432        H  0.73632951  0.63760680  0.41743071     0.09700
H433        H  0.72828670  0.67661955  0.49839081     0.08800
N434        N  0.78409262  0.56544435  0.46362575    -0.35000
N435        N  0.79523525  0.55851836  0.48795948    -0.27200
C436        C  0.80626593  0.53716666  0.48297058    -0.02500
C437        C  0.80182956  0.53021020  0.45415758     0.06100
C438        C  0.78768795  0.54863081  0.44262805     0.04200
H439        H  0.81558728  0.52681536  0.49970716     0.09300
H440        H  0.77995559  0.54947767  0.42076501     0.08200
N441        N  0.90337488  0.73233514  0.57260541    -0.26200
N442        N  0.88341788  0.74534808  0.57137638    -0.34100
C443        C  0.87289962  0.74559175  0.59797127     0.02100
C444        C  0.88696115  0.73210484  0.61711198     0.08200
C445        C  0.90622362  0.72395954  0.60019969    -0.04900
H446        H  0.85603548  0.75466059  0.60281124     0.08800
H447        H  0.92071403  0.71209179  0.60700153     0.10000
Cu448      Cu  0.87056541  0.76033637  0.53297701     0.44200
Cu449      Cu  0.92439665  0.72614965  0.53567405     0.42000
Cu450      Cu  0.90277538  0.74947863  0.46441331     0.43900
N451        N  0.85756190  0.77004095  0.49219657    -0.33600
N452        N  0.86867810  0.76588825  0.46694696    -0.27800
C453        C  0.85428003  0.77353192  0.44489632    -0.03900
C454        C  0.83305773  0.78283822  0.45691494     0.08300
C455        C  0.83606143  0.78038064  0.48703546     0.02100
H456        H  0.85879226  0.77201249  0.42180159     0.09700
H457        H  0.82375518  0.78577120  0.50429495     0.08800
N458        N  0.93609253  0.73213899  0.47067887    -0.35000
N459        N  0.94329170  0.72364267  0.49645041    -0.27200
C460        C  0.96535371  0.71389769  0.49359177    -0.02500
C461        C  0.97286647  0.71645944  0.46470013     0.06100
C462        C  0.95368023  0.72796680  0.45072278     0.04200
H463        H  0.97506843  0.70547815  0.51151083     0.09300
H464        H  0.95278516  0.73342628  0.42786042     0.08200
C465        C  0.84923836  0.72378219  0.75505590    -0.27100
C466        C  0.86318198  0.70821180  0.73738282     0.06500
C467        C  0.86955792  0.68521043  0.74806966     0.26100
C468        C  0.86088574  0.67742354  0.77527962    -0.11600
C469        C  0.84604223  0.69256244  0.79230640    -0.25600
C470        C  0.84092633  0.71612644  0.78255909     0.36900
C471        C  0.86951441  0.71523510  0.70701752     0.06500
F472        F  0.88298520  0.66978408  0.73145148    -0.19300
H473        H  0.86503522  0.65923474  0.78267617     0.16300
F474        F  0.82668659  0.73111620  0.79873066    -0.23000
H475        H  0.84431842  0.74163501  0.74717814     0.18100
C476        C  0.85127815  0.72069253  0.68665388     0.26100
C477        C  0.85716324  0.72622068  0.65757193    -0.11600
C478        C  0.88132083  0.72637002  0.64819693    -0.25600
C479        C  0.89960009  0.72100095  0.66870962     0.37000
C480        C  0.89366385  0.71543390  0.69785908    -0.27200
F481        F  0.82770763  0.71982731  0.69464467    -0.19400
H482        H  0.84268299  0.72987488  0.64224465     0.16300
F483        F  0.92319266  0.72164730  0.66090183    -0.23100
H484        H  0.90792027  0.71133371  0.71336578     0.18100
C485        C  0.77110195  0.62840043  0.69121641    -0.27100
C486        C  0.79378342  0.62419946  0.70389404     0.06500
C487        C  0.81192398  0.61313953  0.68682195     0.26100
C488        C  0.80764597  0.60749459  0.65716543    -0.11600
C489        C  0.78530557  0.61293568  0.64406701    -0.25600
C490        C  0.76684150  0.62286069  0.66166563     0.36900
C491        C  0.79881798  0.63337078  0.73397889     0.06500
F492        F  0.83416399  0.60909595  0.69829300    -0.19300
H493        H  0.82215077  0.59985971  0.64413746     0.16300
F494        F  0.74460767  0.62724061  0.65039577    -0.23000
H495        H  0.75677697  0.63651065  0.70414100     0.18100
C496        C  0.79502230  0.65797253  0.74053698     0.26100
C497        C  0.80056964  0.66704711  0.76838211    -0.11600
C498        C  0.81034422  0.65193702  0.79020553    -0.25600
C499        C  0.81302601  0.62709057  0.78421092     0.37000
C500        C  0.80756912  0.61793920  0.75614933    -0.27200
F501        F  0.78684467  0.67347611  0.71959903    -0.19400
H502        H  0.79781206  0.68614162  0.77270800     0.16300
F503        F  0.82158974  0.61181463  0.80504949    -0.23100
H504        H  0.81024723  0.59885782  0.75166340     0.18100
C505        C  0.90142034  0.69845026  0.90939837    -0.27100
C506        C  0.91843790  0.67973302  0.90732733     0.06500
C507        C  0.91176415  0.65781754  0.89390212     0.26100
C508        C  0.88862065  0.65513782  0.88191834    -0.11600
C509        C  0.87157850  0.67405692  0.88360238    -0.25600
C510        C  0.87832253  0.69571487  0.89775754     0.36900
C511        C  0.94311218  0.68366447  0.91886359     0.06500
F512        F  0.92795159  0.63945389  0.89117983    -0.19300
H513        H  0.88449743  0.63863893  0.87023474     0.16300
F514        F  0.86275845  0.71451528  0.90026926    -0.23000
H515        H  0.90611632  0.71538003  0.91998760     0.18100
C516        C  0.95694122  0.70329820  0.90891059     0.26100
C517        C  0.97940804  0.70817684  0.92149855    -0.11600
C518        C  0.98846679  0.69375057  0.94448077    -0.25600
C519        C  0.97485854  0.67365154  0.95383993     0.37000
C520        C  0.95244191  0.66867448  0.94103240    -0.27200
F521        F  0.94863242  0.71784808  0.88705628    -0.19400
H522        H  0.98937959  0.72372068  0.91376719     0.16300
F523        F  0.98320526  0.65864671  0.97517399    -0.23100
H524        H  0.94206153  0.65344852  0.94894866     0.18100
C525        C  0.13976936  0.71398095  0.24628135    -0.27100
C526        C  0.11520886  0.71035880  0.24015949     0.06500
C527        C  0.09996763  0.70230410  0.26298097     0.26100
C528        C  0.10946414  0.69716554  0.29092094    -0.11600
C529        C  0.13416666  0.69999254  0.29633610    -0.25600
C530        C  0.14909410  0.70915922  0.27412589     0.36900
C531        C  0.10633393  0.71397154  0.20955757     0.06500
F532        F  0.07605208  0.69908504  0.25818644    -0.19300
H533        H  0.09781512  0.68992095  0.30787506     0.16300
F534        F  0.17301296  0.71231438  0.27904576    -0.23000
H535        H  0.15204467  0.71970056  0.22913742     0.18100
C536        C  0.11378118  0.73416249  0.19310886     0.26100
C537        C  0.10831369  0.73585479  0.16322082    -0.11600
C538        C  0.09509219  0.71765555  0.14890483    -0.25600
C539        C  0.08641217  0.69809528  0.16567775     0.37000
C540        C  0.09217381  0.69623774  0.19565966    -0.27200
F541        F  0.12662921  0.75223340  0.20584739    -0.19400
H542        H  0.11467157  0.75150358  0.15123785     0.16300
F543        F  0.07349010  0.68010248  0.15295868    -0.23100
H544        H  0.08643727  0.68035021  0.20767776     0.18100
C545        C  0.16607787  0.60964092  0.19495989    -0.27100
C546        C  0.17281070  0.63240209  0.20589284     0.06500
C547        C  0.18151321  0.64987787  0.18622359     0.26100
C548        C  0.18392482  0.64449496  0.15631608    -0.11600
C549        C  0.17785176  0.62149094  0.14515960    -0.25600
C550        C  0.16862696  0.60411529  0.16496412     0.36900
C551        C  0.17054656  0.63822039  0.23765473     0.06500
F552        F  0.18727767  0.67241065  0.19586738    -0.19300
H553        H  0.19050289  0.65858445  0.14198953     0.16300
F554        F  0.16257389  0.58157635  0.15582780    -0.23000
H555        H  0.15925137  0.59596311  0.20979375     0.18100
C556        C  0.14815110  0.63670808  0.25199331     0.26100
C557        C  0.14554630  0.64560671  0.28065517    -0.11600
C558        C  0.16516166  0.65615790  0.29535820    -0.25600
C559        C  0.18790932  0.65600486  0.28195834     0.37000
C560        C  0.19053045  0.64720078  0.25321981    -0.27200
F561        F  0.12845452  0.62827011  0.23760077    -0.19400
H562        H  0.12789265  0.64550929  0.29083980     0.16300
F563        F  0.20711404  0.66608510  0.29573732    -0.23100
H564        H  0.20798678  0.64823571  0.24264424     0.18100
C565        C  0.06997670  0.66940579  0.39766311    -0.27100
C566        C  0.06606254  0.68975553  0.41577104     0.06500
C567        C  0.08550013  0.70531764  0.42168934     0.26100
C568        C  0.10805949  0.70098212  0.40909009    -0.11600
C569        C  0.11185917  0.68101196  0.39056408    -0.25600
C570        C  0.09272391  0.66501714  0.38512524     0.36900
C571        C  0.04179524  0.69519186  0.42814437     0.06500
F572        F  0.08238272  0.72545506  0.43847226    -0.19300
H573        H  0.12251282  0.71372091  0.41308902     0.16300
F574        F  0.09564341  0.64603085  0.36643702    -0.23000
H575        H  0.05531176  0.65711295  0.39291406     0.18100
C576        C  0.02128332  0.69689470  0.41000853     0.26100
C577        C  0.99893523  0.70383470  0.42192435    -0.11600
C578        C  0.99659106  0.70909400  0.45211433    -0.25600
C579        C  0.01721528  0.70730005  0.47013887     0.43400
C580        C  0.03938675  0.70025787  0.45826485    -0.27200
F581        F  0.02300926  0.69269970  0.38062982    -0.19400
H582        H  0.98345867  0.70506998  0.40750026     0.16300
F583        F  0.01640524  0.71333378  0.49907535    -0.23100
H584        H  0.05490564  0.69911665  0.47265921     0.18100
C585        C  0.14867434  0.54629773  0.42295522    -0.27100
C586        C  0.15796652  0.56847458  0.43311324     0.06500
C587        C  0.17347239  0.56824877  0.45769468     0.26100
C588        C  0.17935970  0.54644657  0.47169964    -0.11600
C589        C  0.17051554  0.52432657  0.46110140    -0.25600
C590        C  0.15508003  0.52441831  0.43654058     0.36900
C591        C  0.15249346  0.59158254  0.41734643     0.06500
F592        F  0.18385533  0.58897276  0.46744331    -0.19300
H593        H  0.19155407  0.54678018  0.49030182     0.16300
F594        F  0.14578972  0.50341740  0.42601415    -0.23000
H595        H  0.13644312  0.54588310  0.40440635     0.18100
C596        C  0.15440275  0.59300789  0.38648219     0.26100
C597        C  0.15208650  0.61531061  0.37221503    -0.11600
C598        C  0.14797832  0.63672579  0.38821120    -0.25600
C599        C  0.14492383  0.63527367  0.41886598     0.37000
C600        C  0.14694293  0.61285792  0.43319493    -0.27200
F601        F  0.16012685  0.57317988  0.37017144    -0.19400
H602        H  0.15452607  0.61600731  0.34857722     0.16300
F603        F  0.14174780  0.65560870  0.43523195    -0.23100
H604        H  0.14497347  0.61226456  0.45688290     0.18100
C605        C  0.12822218  0.29331867  0.76076541    -0.27100
C606        C  0.11755189  0.31123480  0.74309762     0.06500
C607        C  0.11628920  0.33519835  0.75340259     0.26100
C608        C  0.12644230  0.34124715  0.78051190    -0.11600
C609        C  0.13795634  0.32350313  0.79760248    -0.25600
C610        C  0.13825487  0.29936226  0.78797682     0.36900
C611        C  0.10962575  0.30528306  0.71298526     0.06500
F612        F  0.10641162  0.35293116  0.73656070    -0.19300
H613        H  0.12591375  0.35991459  0.78787154     0.16300
F614        F  0.14937894  0.28193225  0.80411190    -0.23000
H615        H  0.12929155  0.27476075  0.75308539     0.18100
C616        C  0.12625352  0.29608645  0.69255738     0.26100
C617        C  0.11925568  0.29177464  0.66357434    -0.11600
C618        C  0.09546584  0.29634662  0.65427415    -0.25600
C619        C  0.07864874  0.30510187  0.67513494     0.37000
C620        C  0.08581675  0.30967968  0.70414084    -0.27200
F621        F  0.14956057  0.29214931  0.70037737    -0.19400
H622        H  0.13284110  0.28532975  0.64834730     0.16300
F623        F  0.05525864  0.30902703  0.66789901    -0.23100
H624        H  0.07274989  0.31663529  0.71979719     0.18100
C625        C  0.21912809  0.38703347  0.70221404    -0.27100
C626        C  0.19837711  0.39410751  0.71778716     0.06500
C627        C  0.18239033  0.41076809  0.70463732     0.26100
C628        C  0.18653364  0.41907744  0.67593521    -0.11600
C629        C  0.20647182  0.41071349  0.65971822    -0.25600
C630        C  0.22311234  0.39508065  0.67346947     0.36900
C631        C  0.19264881  0.38260641  0.74656120     0.06500
F632        F  0.16196468  0.41784532  0.71874151    -0.19300
H633        H  0.17344623  0.43104737  0.66586698     0.16300
F634        F  0.24319375  0.38737220  0.65910819    -0.23000
H635        H  0.23203492  0.37475472  0.71210532     0.18100
C636        C  0.19361934  0.35722861  0.74954682     0.26100
C637        C  0.18657978  0.34624684  0.77581203    -0.11600
C638        C  0.17817796  0.36020337  0.79953367    -0.25600
C639        C  0.17808852  0.38556311  0.79717795     0.37000
C640        C  0.18521566  0.39665263  0.77083262    -0.27200
F641        F  0.20025997  0.34289313  0.72660662    -0.19400
H642        H  0.18705515  0.32668139  0.77738710     0.16300
F643        F  0.17008185  0.39952739  0.81980547    -0.23100
H644        H  0.18462509  0.41620489  0.76924345     0.18100
C645        C  0.17390779  0.41268902  0.92140453    -0.27100
C646        C  0.15529106  0.42939318  0.91604014     0.06500
C647        C  0.13547693  0.42211772  0.89882013     0.26100
C648        C  0.13471681  0.39870715  0.88674546    -0.11600
C649        C  0.15368766  0.38228098  0.89165582    -0.25600
C650        C  0.17314364  0.38941558  0.90943047     0.36900
C651        C  0.15723516  0.45438738  0.92804496     0.06500
F652        F  0.11693212  0.43763537  0.89364957    -0.19300
H653        H  0.11973507  0.39368315  0.87277355     0.16300
F654        F  0.19167030  0.37393475  0.91492403    -0.23000
H655        H  0.18943244  0.41788697  0.93437232     0.18100
C656        C  0.16255726  0.45816240  0.95796050     0.26100
C657        C  0.16617428  0.48156999  0.96879922    -0.11600
C658        C  0.16486008  0.50177321  0.95007696    -0.25600
C659        C  0.15915019  0.49807004  0.92018933     0.37000
C660        C  0.15529629  0.47458351  0.90937541    -0.27200
F661        F  0.16429423  0.43915376  0.97676650    -0.19400
H662        H  0.17062215  0.48378728  0.99185572     0.16300
F663        F  0.15699400  0.51709500  0.90149015    -0.23100
H664        H  0.15137303  0.47211004  0.88620159     0.18100
C665        C  0.83454440  0.55733939  0.95929417    -0.27100
C666        C  0.82700467  0.56224572  0.93042369     0.06500
C667        C  0.81380630  0.54457874  0.91515808     0.26100
C668        C  0.80797554  0.52265467  0.92867220    -0.11600
C669        C  0.81518953  0.51763800  0.95774151    -0.25600
C670        C  0.82890347  0.53525338  0.97282990     0.36900
C671        C  0.83213831  0.58596036  0.91638451     0.06500
F672        F  0.80571015  0.54888627  0.88745178    -0.19300
H673        H  0.79725303  0.50986536  0.91634268     0.16300
F674        F  0.83723667  0.53122823  0.00044926    -0.23000
H675        H  0.84495643  0.57062712  0.97133859     0.18100
C676        C  0.82448185  0.60776136  0.92957298     0.26100
C677        C  0.82646279  0.62967351  0.91427701    -0.11600
C678        C  0.83620984  0.63021617  0.88580403    -0.25600
C679        C  0.84496104  0.60867293  0.87322149     0.37000
C680        C  0.84300368  0.58676693  0.88845171    -0.27200
F681        F  0.81356226  0.60764292  0.95631998    -0.19400
H682        H  0.81927721  0.64608614  0.92407370     0.16300
F683        F  0.85491774  0.60874266  0.84594987    -0.23100
H684        H  0.84932154  0.57023727  0.87804997     0.18100
C685        C  0.07058461  0.33204215  0.88748633    -0.27100
C686        C  0.06828090  0.33756856  0.91751994     0.06500
C687        C  0.08852041  0.34661682  0.93267764     0.26100
C688        C  0.11080309  0.34881520  0.91831251    -0.11600
C689        C  0.11320460  0.34243699  0.88849831    -0.25600
C690        C  0.09263147  0.33465370  0.87304960     0.36900
C691        C  0.04528907  0.33206181  0.93305405     0.06500
F692        F  0.08683522  0.35304478  0.96145904    -0.19300
H693        H  0.12633792  0.35468487  0.93079051     0.16300
F694        F  0.09380729  0.32919581  0.84393958    -0.23000
H695        H  0.05545448  0.32484892  0.87528436     0.18100
C696        C  0.02278323  0.33804884  0.92058208     0.26100
C697        C  0.00136032  0.33060539  0.93408278    -0.11600
C698        C  0.00189097  0.31743579  0.96048947    -0.25600
C699        C  0.02433228  0.31177541  0.97321458     0.37000
C700        C  0.04574000  0.31893409  0.95953181    -0.27200
F701        F  0.02145925  0.35125731  0.89545334    -0.19400
H702        H  0.98430583  0.33537117  0.92403188     0.16300
F703        F  0.02568853  0.29829999  0.99812155    -0.23100
H704        H  0.06274448  0.31348430  0.96919067     0.18100
C705        C  0.83974544  0.30022931  0.25373979    -0.27100
C706        C  0.86117791  0.31123943  0.24420084     0.06500
C707        C  0.87258574  0.32809819  0.26280655     0.26100
C708        C  0.86268005  0.33363113  0.29039432    -0.11600
C709        C  0.84112638  0.32280030  0.29948889    -0.25600
C710        C  0.82960830  0.30621950  0.28090796     0.36900
C711        C  0.87024568  0.30612946  0.21404737     0.06500
F712        F  0.89242751  0.34026459  0.25367927    -0.19300
H713        H  0.87117363  0.34720308  0.30403543     0.16300
F714        F  0.80808070  0.29650326  0.28856915    -0.23000
H715        H  0.83052718  0.28734574  0.23979295     0.18100
C716        C  0.89458007  0.30026752  0.20853124     0.26100
C717        C  0.90225009  0.29477450  0.17985193    -0.11600
C718        C  0.88571379  0.29452470  0.15646644    -0.25600
C719        C  0.86150864  0.30068104  0.16198462     0.37000
C720        C  0.85396793  0.30652028  0.19040319    -0.27200
F721        F  0.91069931  0.29887338  0.23093180    -0.19400
H722        H  0.92094376  0.28996388  0.17605073     0.16300
F723        F  0.84515775  0.30161509  0.13979957    -0.23100
H724        H  0.83525426  0.31140559  0.19395946     0.18100
C725        C  0.77699738  0.36436375  0.25812537    -0.27100
C726        C  0.79319136  0.38080382  0.24527997     0.06500
C727        C  0.81361897  0.38805474  0.26127291     0.26100
C728        C  0.81840608  0.37786627  0.28881874    -0.11600
C729        C  0.80288743  0.36046436  0.30079590    -0.25600
C730        C  0.78178015  0.35426298  0.28573438     0.36900
C731        C  0.78972726  0.38857483  0.21435237     0.06500
F732        F  0.82972742  0.40373300  0.24947834    -0.19300
H733        H  0.83478630  0.38275284  0.30031383     0.16300
F734        F  0.76655720  0.33746485  0.29692731    -0.23000
H735        H  0.76102882  0.35875601  0.24627914     0.18100
C736        C  0.78687128  0.37112208  0.19211167     0.26100
C737        C  0.78355225  0.37820946  0.16293666    -0.11600
C738        C  0.78320444  0.40282836  0.15516159    -0.25600
C739        C  0.78646918  0.42035975  0.17734969     0.37000
C740        C  0.78968958  0.41322429  0.20670757    -0.27200
F741        F  0.78791922  0.34712598  0.19849756    -0.19400
H742        H  0.78162350  0.36428714  0.14631723     0.16300
F743        F  0.78578653  0.44433932  0.17091673    -0.23100
H744        H  0.79182715  0.42694321  0.22355507     0.18100
C745        C  0.80020621  0.41803725  0.41329805    -0.27100
C746        C  0.81886060  0.43435959  0.40752350     0.06500
C747        C  0.83965672  0.42610011  0.39282534     0.26100
C748        C  0.84129479  0.40194285  0.38334173    -0.11600
C749        C  0.82234340  0.38569473  0.38873287    -0.25600
C750        C  0.80185952  0.39402440  0.40404127     0.36900
C751        C  0.81606841  0.45988821  0.41695741     0.06500
F752        F  0.85785496  0.44161608  0.38657590    -0.19300
H753        H  0.85696451  0.39617310  0.37092631     0.16300
F754        F  0.78320644  0.37903020  0.40993194    -0.23000
H755        H  0.78419343  0.42398069  0.42495366     0.18100
C756        C  0.79586812  0.47346104  0.40803852     0.26100
C757        C  0.79186932  0.49664270  0.41942331    -0.11600
C758        C  0.80772959  0.50662660  0.44021774    -0.25600
C759        C  0.82839732  0.49333583  0.44838949     0.37000
C760        C  0.83253099  0.47019984  0.43670944    -0.27200
F761        F  0.77978008  0.46411449  0.38863249    -0.19400
H762        H  0.77581644  0.50638246  0.41274739     0.16300
F763        F  0.84460328  0.50262491  0.46765385    -0.23100
H764        H  0.84816896  0.45998728  0.44384195     0.18100
C765        C  0.89048750  0.35447567  0.43336154    -0.27100
C766        C  0.91104144  0.34582757  0.41836437     0.06500
C767        C  0.90860775  0.33881480  0.38871257     0.26100
C768        C  0.88629047  0.34027725  0.37468930    -0.11600
C769        C  0.86556716  0.34796277  0.38987335    -0.25600
C770        C  0.86790445  0.35532439  0.41942636     0.36900
C771        C  0.93426636  0.34176680  0.43424576     0.06500
F772        F  0.92734454  0.32875520  0.37377531    -0.19300
H773        H  0.88506316  0.33425211  0.35206181     0.16300
F774        F  0.84824951  0.36173000  0.43546670    -0.23000
H775        H  0.89175455  0.35979369  0.45627586     0.18100
C776        C  0.95660345  0.34742985  0.42117407     0.26100
C777        C  0.97821781  0.33999770  0.43432584    -0.11600
C778        C  0.97810796  0.32766938  0.46131127    -0.25600
C779        C  0.95592637  0.32351016  0.47544201     0.37000
C780        C  0.93427021  0.33029604  0.46187466    -0.27200
F781        F  0.95759079  0.36015402  0.39566402    -0.19400
H782        H  0.99510706  0.34396548  0.42344430     0.16300
F783        F  0.95502295  0.31162611  0.50154656    -0.23100
H784        H  0.91743643  0.32565753  0.47247508     0.18100
C785        C  0.80544716  0.20723194  0.44370720    -0.27100
C786        C  0.79436449  0.21630089  0.41821693     0.06500
C787        C  0.77566364  0.20290763  0.40513013     0.26100
C788        C  0.76770320  0.18135575  0.41804335    -0.11600
C789        C  0.77801273  0.17293928  0.44437067    -0.25600
C790        C  0.79737399  0.18584265  0.45674394     0.36900
C791        C  0.80153256  0.24026593  0.40636893     0.06500
F792        F  0.76417734  0.21132228  0.38080745    -0.19300
H793        H  0.75269004  0.17187231  0.40816963     0.16300
F794        F  0.80854744  0.17783785  0.48147304    -0.23000
H795        H  0.82022323  0.21694964  0.45380139     0.18100
C796        C  0.80265850  0.26063035  0.42500552     0.26100
C797        C  0.80795330  0.28341664  0.41347522    -0.11600
C798        C  0.81177014  0.28643784  0.38321368    -0.25600
C799        C  0.81180155  0.26605460  0.36475522     0.37000
C800        C  0.80663868  0.24314380  0.37625990    -0.27200
F801        F  0.79746480  0.25874668  0.45411817    -0.19400
H802        H  0.80835809  0.29890712  0.42808585     0.16300
F803        F  0.81594483  0.26839895  0.33550877    -0.23100
H804        H  0.80630776  0.22766854  0.36158774     0.18100
C805        C  0.74222840  0.31266643  0.42163695    -0.27100
C806        C  0.72706306  0.29933345  0.40290911     0.06500
C807        C  0.73316822  0.29726735  0.37292813     0.26100
C808        C  0.75456367  0.30748705  0.36234059    -0.11600
C809        C  0.76996655  0.32016185  0.38132742    -0.25600
C810        C  0.76349515  0.32297122  0.41100317     0.36900
C811        C  0.70565300  0.28680774  0.41528320     0.06500
F812        F  0.71919232  0.28423560  0.35426357    -0.19300
H813        H  0.75963858  0.30465304  0.33958228     0.16300
F814        F  0.77844759  0.33434409  0.43011703    -0.23000
H815        H  0.73784182  0.31462965  0.44474838     0.18100
C816        C  0.70807323  0.27186082  0.44014529     0.26100
C817        C  0.68780666  0.26131882  0.45302094    -0.11600
C818        C  0.66465635  0.26514584  0.44130507    -0.25600
C819        C  0.66227637  0.27938154  0.41576254     0.37000
C820        C  0.68263373  0.29013856  0.40295111    -0.27200
F821        F  0.73012362  0.26726149  0.45188551    -0.19400
H822        H  0.69028909  0.25004374  0.47227025     0.16300
F823        F  0.64024559  0.28387644  0.40398563    -0.23100
H824        H  0.68033347  0.30164794  0.38386881     0.18100
C825        C  0.77802603  0.22141777  0.94628792    -0.27100
C826        C  0.78038579  0.21397341  0.91691096     0.06500
C827        C  0.80281270  0.21637131  0.90281741     0.26100
C828        C  0.82257256  0.22584526  0.91812255    -0.11600
C829        C  0.82027838  0.23314432  0.94767346    -0.25600
C830        C  0.79763788  0.23098540  0.96153987     0.36900
C831        C  0.75893095  0.20497410  0.90097826     0.06500
F832        F  0.80568385  0.20920427  0.87443147    -0.19300
H833        H  0.83974193  0.22720654  0.90692718     0.16300
F834        F  0.79402160  0.23896942  0.98945791    -0.23000
H835        H  0.76072177  0.22034787  0.95726692     0.18100
C836        C  0.74481243  0.18620645  0.91277295     0.26100
C837        C  0.72293781  0.17996190  0.89956829    -0.11600
C838        C  0.71476462  0.19252382  0.87472790    -0.25600
C839        C  0.72941644  0.21036636  0.86199089     0.37000
C840        C  0.75133569  0.21653901  0.87507664    -0.27200
F841        F  0.75190439  0.17436880  0.93748026    -0.19400
H842        H  0.71178215  0.16617733  0.90958667     0.16300
F843        F  0.72209940  0.22236555  0.83749942    -0.23100
H844        H  0.76187697  0.23109529  0.86572443     0.18100
C845        C  0.68536092  0.27409694  0.87228359    -0.27100
C846        C  0.69172670  0.27605572  0.90218218     0.06500
C847        C  0.69007999  0.25536069  0.92016367     0.26100
C848        C  0.68294428  0.23317083  0.90827327    -0.11600
C849        C  0.67709519  0.23113554  0.87836053    -0.25600
C850        C  0.67792984  0.25183267  0.86047088     0.36900
C851        C  0.70052845  0.29935682  0.91468449     0.06500
F852        F  0.69637778  0.25632666  0.94901302    -0.19300
H853        H  0.68253926  0.21732087  0.92228885     0.16300
F854        F  0.67269750  0.25022987  0.83135181    -0.23000
H855        H  0.68629782  0.28978275  0.85805963     0.18100
C856        C  0.71975975  0.31206120  0.90168591     0.26100
C857        C  0.72941742  0.33257229  0.91558468    -0.11600
C858        C  0.72019833  0.34068509  0.94271913    -0.25600
C859        C  0.70017988  0.32865107  0.95486019     0.37000
C860        C  0.69053121  0.30828648  0.94095568    -0.27200
F861        F  0.73006218  0.30392193  0.87641192    -0.19400
H862        H  0.74478224  0.34148152  0.90572276     0.16300
F863        F  0.68977149  0.33656160  0.98016891    -0.23100
H864        H  0.67534202  0.29920518  0.95100810     0.18100
C865        C  0.69707171  0.14711706  0.68764387    -0.27100
C866        C  0.69147660  0.12979372  0.70910869     0.06500
C867        C  0.69003911  0.10528332  0.70075429     0.26100
C868        C  0.69483000  0.09832388  0.67157599    -0.11600
C869        C  0.70111751  0.11565540  0.65026141    -0.25600
C870        C  0.70177469  0.14024643  0.65859318     0.36900
C871        C  0.68690152  0.13780663  0.73987462     0.06500
F872        F  0.68471341  0.08801692  0.72094435    -0.19300
H873        H  0.69413761  0.07931343  0.66582026     0.16300
F874        F  0.70626605  0.15787639  0.63858826    -0.23000
H875        H  0.69755526  0.16615587  0.69336490     0.18100
C876        C  0.70345961  0.15292042  0.75448564     0.26100
C877        C  0.69804134  0.16241747  0.78229453    -0.11600
C878        C  0.67593879  0.15732288  0.79573910    -0.25600
C879        C  0.65971330  0.14157726  0.78178364     0.37000
C880        C  0.66522781  0.13181258  0.75409171    -0.27200
F881        F  0.72473446  0.15879807  0.74163292    -0.19400
H882        H  0.71066413  0.17457029  0.79284085     0.16300
F883        F  0.63832267  0.13615992  0.79466327    -0.23100
H884        H  0.65216869  0.12034127  0.74323990     0.18100
C885        C  0.60364143  0.19784684  0.76640479    -0.27100
C886        C  0.61749569  0.20645665  0.74269777     0.06500
C887        C  0.64205215  0.21155231  0.74728422     0.26100
C888        C  0.65272000  0.20687935  0.77449415    -0.11600
C889        C  0.63920213  0.19703688  0.79758970    -0.25600
C890        C  0.61439143  0.19329327  0.79378923     0.36900
C891        C  0.60698516  0.20875476  0.71276315     0.06500
F892        F  0.65612572  0.21962957  0.72493252    -0.19300
H893        H  0.67185108  0.20998420  0.77721511     0.16300
F894        F  0.60092492  0.18392520  0.81594465    -0.23000
H895        H  0.58465573  0.19410825  0.76346844     0.18100
C896        C  0.59547606  0.18900880  0.69913235     0.26100
C897        C  0.58865977  0.19032038  0.66944505    -0.11600
C898        C  0.59348004  0.21118902  0.65285077    -0.25600
C899        C  0.60385361  0.23132926  0.66695555     0.37000
C900        C  0.61042427  0.23009536  0.69659675    -0.27200
F901        F  0.59222327  0.16793504  0.71393079    -0.19400
H902        H  0.58073783  0.17460016  0.65905442     0.16300
F903        F  0.60778627  0.25223783  0.65207307    -0.23100
H904        H  0.61881836  0.24566237  0.70678494     0.18100
C905        C  0.74742623  0.68876891  0.91498788    -0.27100
C906        C  0.72734306  0.68949387  0.89623381     0.06500
C907        C  0.73033414  0.68358582  0.86627914     0.26100
C908        C  0.75329550  0.67809069  0.85518715    -0.11600
C909        C  0.77341847  0.67867623  0.87379025    -0.25600
C910        C  0.77025372  0.68335384  0.90392575     0.36900
C911        C  0.70395244  0.69825686  0.90794032     0.06500
F912        F  0.71118136  0.68370397  0.84771281    -0.19300
H913        H  0.75557583  0.67465659  0.83185580     0.16300
F914        F  0.78947988  0.68392553  0.92236597    -0.23000
H915        H  0.74560936  0.69350886  0.93804169     0.18100
C916        C  0.69439423  0.68853690  0.93401165     0.26100
C917        C  0.67420334  0.69915798  0.94721058    -0.11600
C918        C  0.66304353  0.71950819  0.93457346    -0.25600
C919        C  0.67205885  0.72872481  0.90791901     0.37000
C920        C  0.69238369  0.71816678  0.89479036    -0.27200
F921        F  0.70485522  0.66900700  0.94696536    -0.19400
H922        H  0.66744548  0.69164441  0.96761676     0.16300
F923        F  0.66229943  0.74888329  0.89562412    -0.23100
H924        H  0.69977962  0.72625928  0.87505260     0.18100
C925        C  0.66011107  0.04180701  0.91360825    -0.27100
C926        C  0.66766555  0.06327414  0.92754307     0.06500
C927        C  0.68056937  0.06138535  0.95416468     0.26100
C928        C  0.68595229  0.03862997  0.96614215    -0.11600
C929        C  0.67903767  0.01723529  0.95168349    -0.25600
C930        C  0.66591176  0.01905187  0.92530928     0.36900
C931        C  0.66314218  0.08733608  0.91346107     0.06500
F932        F  0.68891894  0.08145547  0.96803026    -0.19300
H933        H  0.69621422  0.03775302  0.98639216     0.16300
F934        F  0.65817895  0.99887476  0.91114543    -0.23000
H935        H  0.64968924  0.04263095  0.89348545     0.18100
C936        C  0.66767308  0.09067575  0.88325179     0.26100
C937        C  0.66482104  0.11345625  0.87037957    -0.11600
C938        C  0.65790822  0.13371098  0.88718494    -0.25600
C939        C  0.65291061  0.13044440  0.91730900     0.37000
C940        C  0.65525722  0.10740978  0.93016266    -0.27200
F941        F  0.67616622  0.07222906  0.86633957    -0.19400
H942        H  0.66879103  0.11540516  0.84715890     0.16300
F943        F  0.64710123  0.14957806  0.93471579    -0.23100
H944        H  0.65137674  0.10537783  0.95338121     0.18100
C945        C  0.75604220  0.78329918  0.93106336    -0.27100
C946        C  0.76825642  0.78631244  0.90430317     0.06500
C947        C  0.76838976  0.80928538  0.89098206     0.26100
C948        C  0.75759082  0.82915187  0.90523072    -0.11600
C949        C  0.74650795  0.82635366  0.93289201    -0.25600
C950        C  0.74521145  0.80298639  0.94520355     0.36900
C951        C  0.78151548  0.76543488  0.89149496     0.06500
F952        F  0.77993728  0.81273493  0.86498441    -0.19300
H953        H  0.75874935  0.84687407  0.89518147     0.16300
F954        F  0.73339264  0.79901514  0.97089577    -0.23000
H955        H  0.75517194  0.76559530  0.94125608     0.18100
C956        C  0.79891845  0.75317682  0.90842013     0.26100
C957        C  0.80962581  0.73192137  0.89791643    -0.11600
C958        C  0.80347786  0.72265960  0.87024066    -0.25600
C959        C  0.78642859  0.73511327  0.85296630     0.37000
C960        C  0.77564633  0.75645635  0.86347619    -0.27200
F961        F  0.80510173  0.76147420  0.93551795    -0.19400
H962        H  0.82164133  0.72197697  0.91219957     0.16300
F963        F  0.77948127  0.72603258  0.82652643    -0.23100
H964        H  0.76202550  0.76542368  0.85029974     0.18100
C965        C  0.73556134  0.83955388  0.40702185    -0.27100
C966        C  0.75011109  0.82136537  0.39445659     0.06500
C967        C  0.74260699  0.81022350  0.36817941     0.26100
C968        C  0.72041708  0.81637929  0.35564351    -0.11600
C969        C  0.70527935  0.83351524  0.36919512    -0.25600
C970        C  0.71337606  0.84572901  0.39438795     0.36900
C971        C  0.77170267  0.81244047  0.41039599     0.06500
F972        F  0.75587317  0.79218125  0.35579787    -0.19300
H973        H  0.71448600  0.80692312  0.33605836     0.16300
F974        F  0.69920901  0.86245882  0.40785296    -0.23000
H975        H  0.74105763  0.84839645  0.42721824     0.18100
C976        C  0.79433953  0.81070862  0.39663072     0.26100
C977        C  0.81413552  0.80112137  0.41187083    -0.11600
C978        C  0.81178540  0.79303485  0.44109987    -0.25600
C979        C  0.78895995  0.79483725  0.45476583     0.37000
C980        C  0.76930569  0.80455872  0.43956128    -0.27200
F981        F  0.79740264  0.81861623  0.36860949    -0.19400
H982        H  0.83138112  0.80025861  0.40076828     0.16300
F983        F  0.78513682  0.78647524  0.48241753    -0.23100
H984        H  0.75190836  0.80534938  0.45039265     0.18100
C985        C  0.68025891  0.76849032  0.41404684    -0.27100
C986        C  0.68793063  0.74952889  0.39551512     0.06500
C987        C  0.68560540  0.75230683  0.36480448     0.26100
C988        C  0.67655400  0.77395248  0.35309195    -0.11600
C989        C  0.67002225  0.79312038  0.37174431    -0.25600
C990        C  0.67169290  0.79020069  0.40230042     0.36900
C991        C  0.69901031  0.72746603  0.40858424     0.06500
F992        F  0.69328220  0.73470489  0.34609396    -0.19300
H993        H  0.67583768  0.77622324  0.32944647     0.16300
F994        F  0.66574744  0.80866740  0.42072293    -0.23000
H995        H  0.68133172  0.76666452  0.43774289     0.18100
C996        C  0.71630985  0.72955821  0.43111255     0.26100
C997        C  0.72541553  0.70892784  0.44493987    -0.11600
C998        C  0.71807538  0.68575908  0.43612685    -0.25600
C999        C  0.70163191  0.68347907  0.41275486     0.37000
C1000       C  0.69199373  0.70420858  0.39934049    -0.27200
F1001       F  0.72467710  0.75156875  0.43957307    -0.19400
H1002       H  0.73848209  0.71107295  0.46246295     0.16300
F1003       F  0.69406756  0.66131838  0.40379775    -0.23100
H1004       H  0.67857941  0.70207564  0.38222720     0.18100
C1005       C  0.71434602  0.88165146  0.19265141    -0.27100
C1006       C  0.69354114  0.89091548  0.20630490     0.06500
C1007       C  0.67917729  0.90776548  0.19100459     0.26100
C1008       C  0.68491237  0.91411370  0.16204701    -0.11600
C1009       C  0.70487948  0.90362642  0.14778654    -0.25600
C1010       C  0.71993396  0.88778751  0.16364770     0.36900
C1011       C  0.68611843  0.88161258  0.23552744     0.06500
F1012       F  0.65882253  0.91700299  0.20333954    -0.19300
H1013       H  0.67302994  0.92633756  0.15034260     0.16300
F1014       F  0.74003506  0.87814257  0.15117899    -0.23000
H1015       H  0.72604848  0.86920341  0.20429918     0.18100
C1016       C  0.68549965  0.85652767  0.24079000     0.26100
C1017       C  0.67758311  0.84770912  0.26782244    -0.11600
C1018       C  0.66929534  0.86356080  0.28983948    -0.25600
C1019       C  0.67073432  0.88864041  0.28506050     0.37000
C1020       C  0.67902748  0.89756637  0.25808244    -0.27200
F1021       F  0.69165707  0.84043328  0.21942001    -0.19400
H1022       H  0.67755047  0.82834652  0.27136744     0.16300
F1023       F  0.66360743  0.90455544  0.30603184    -0.23100
H1024       H  0.67977633  0.91694793  0.25473769     0.18100
C1025       C  0.62946624  0.79760805  0.18545734    -0.27100
C1026       C  0.61022048  0.80346960  0.20421410     0.06500
C1027       C  0.58677745  0.80473236  0.19266670     0.26100
C1028       C  0.58277647  0.80042664  0.16269328    -0.11600
C1029       C  0.60207135  0.79480381  0.14374136    -0.25600
C1030       C  0.62553679  0.79336927  0.15551075     0.36900
C1031       C  0.61518235  0.81000176  0.23519858     0.06500
F1032       F  0.56777431  0.80999914  0.21042533    -0.19300
H1033       H  0.56452786  0.80140036  0.15434395     0.16300
F1034       F  0.64489247  0.78901440  0.13799121    -0.23000
H1035       H  0.64772572  0.79707219  0.19389392     0.18100
C1036       C  0.62751323  0.79393112  0.25394017     0.26100
C1037       C  0.63479288  0.80152190  0.28194348    -0.11600
C1038       C  0.63055685  0.82539984  0.29116521    -0.25600
C1039       C  0.61723744  0.84109629  0.27301416     0.37000
C1040       C  0.60949973  0.83336201  0.24530691    -0.27200
F1041       F  0.63315695  0.77119895  0.24476103    -0.19400
H1042       H  0.64505845  0.78924182  0.29567500     0.16300
F1043       F  0.61265035  0.86421450  0.28162307    -0.23100
H1044       H  0.60012602  0.84602549  0.23110177     0.18100
C1045       C  0.65357504  0.91002682  0.42871394    -0.27100
C1046       C  0.65219660  0.93187967  0.41284161     0.06500
C1047       C  0.64488799  0.93110615  0.38317628     0.26100
C1048       C  0.64094925  0.90889013  0.36928785    -0.11600
C1049       C  0.64426944  0.88710441  0.38449764    -0.25600
C1050       C  0.64951880  0.88777303  0.41468700     0.36900
C1051       C  0.66028487  0.95503623  0.42641276     0.06500
F1052       F  0.64221957  0.95179563  0.36737926    -0.19300
H1053       H  0.63586684  0.90863262  0.34630607     0.16300
F1054       F  0.65230686  0.86689834  0.43006206    -0.23000
H1055       H  0.65914185  0.91006186  0.45156992     0.18100
C1056       C  0.65256015  0.96220167  0.45459536     0.26100
C1057       C  0.66118501  0.98364238  0.46728081    -0.11600
C1058       C  0.67785804  0.99838522  0.45231752    -0.25600
C1059       C  0.68561260  0.99103502  0.42407288     0.37000
C1060       C  0.67685708  0.96970667  0.41140335    -0.27200
F1061       F  0.63640833  0.94866884  0.46975520    -0.19400
H1062       H  0.65462721  0.98868223  0.48884992     0.16300
F1063       F  0.70233373  0.00376975  0.40888348    -0.23100
H1064       H  0.68359989  0.96428915  0.39000315     0.18100
C1065       C  0.18890238  0.75656497  0.41567316    -0.27100
C1066       C  0.19370618  0.77580225  0.39627634     0.06500
C1067       C  0.18752348  0.77314023  0.36633038     0.26100
C1068       C  0.17760590  0.75133970  0.35608656    -0.11600
C1069       C  0.17405732  0.73187273  0.37539402    -0.25600
C1070       C  0.17927612  0.73481474  0.40537665     0.36900
C1071       C  0.20667339  0.79754775  0.40752815     0.06500
F1072       F  0.19248412  0.79090276  0.34665602    -0.19300
H1073       H  0.17391065  0.74916675  0.33281823     0.16300
F1074       F  0.17583426  0.71628765  0.42451294    -0.23000
H1075       H  0.19320069  0.75818279  0.43884995     0.18100
C1076       C  0.19867394  0.82135750  0.40181110     0.26100
C1077       C  0.21052470  0.84123960  0.41455876    -0.11600
C1078       C  0.23017532  0.83767917  0.43361522    -0.25600
C1079       C  0.23856548  0.81396669  0.43851980     0.37000
C1080       C  0.22703480  0.79423979  0.42549689    -0.27200
F1081       F  0.17868857  0.82539343  0.38529480    -0.19400
H1082       H  0.20365716  0.85931795  0.41064908     0.16300
F1083       F  0.25802472  0.80979653  0.45591241    -0.23100
H1084       H  0.23389711  0.77620383  0.42978369     0.18100
C1085       C  0.52824822  0.80927489  0.41802969    -0.27100
C1086       C  0.54100416  0.82928752  0.42884540     0.06500
C1087       C  0.53095045  0.84321783  0.45166279     0.26100
C1088       C  0.50871071  0.83676312  0.46390047    -0.11600
C1089       C  0.49595730  0.81659974  0.45322666    -0.25600
C1090       C  0.50589462  0.80300596  0.42991056     0.36900
C1091       C  0.56496764  0.83498122  0.41639852     0.06500
F1092       F  0.54294917  0.86259654  0.46264852    -0.19300
H1093       H  0.50143742  0.84757644  0.48174654     0.16300
F1094       F  0.49460192  0.78306143  0.41933814    -0.23000
H1095       H  0.53574479  0.79837539  0.40037956     0.18100
C1096       C  0.58350435  0.81763038  0.41732888     0.26100
C1097       C  0.60522032  0.82179673  0.40273337    -0.11600
C1098       C  0.60890754  0.84324947  0.38681700    -0.25600
C1099       C  0.59062432  0.86100197  0.38662815     0.37000
C1100       C  0.56888784  0.85691908  0.40157687    -0.27200
F1101       F  0.58038810  0.79642050  0.43190138    -0.19400
H1102       H  0.61900116  0.80785985  0.40320940     0.16300
F1103       F  0.59296533  0.88141071  0.37033381    -0.23100
H1104       H  0.55464633  0.87036176  0.40037506     0.18100
C1105       C  0.23943756  0.68360707  0.41036978    -0.27100
C1106       C  0.25385193  0.70218239  0.39874059     0.06500
C1107       C  0.24632742  0.71394241  0.37285276     0.26100
C1108       C  0.22412550  0.70821042  0.36006180    -0.11600
C1109       C  0.20906312  0.69073086  0.37281881    -0.25600
C1110       C  0.21725749  0.67783347  0.39748356     0.36900
C1111       C  0.27560536  0.71048721  0.41491578     0.06500
F1112       F  0.25964521  0.73208207  0.36107785    -0.19300
H1113       H  0.21811621  0.71825137  0.34091906     0.16300
F1114       F  0.20306919  0.66091346  0.41035626    -0.23000
H1115       H  0.24502462  0.67411934  0.43010819     0.18100
C1116       C  0.27388166  0.71740488  0.44464063     0.26100
C1117       C  0.29407794  0.72610931  0.45963556    -0.11600
C1118       C  0.31652802  0.72815162  0.44545280    -0.25600
C1119       C  0.31829200  0.72093863  0.41569550     0.37000
C1120       C  0.29798263  0.71232498  0.40064943    -0.27200
F1121       F  0.25241262  0.71654849  0.45895106    -0.19400
H1122       H  0.29189571  0.73174059  0.48232532     0.16300
F1123       F  0.33965093  0.72163810  0.40118924    -0.23100
H1124       H  0.29976455  0.70688976  0.37781116     0.18100
C1125       C  0.23429722  0.80888761  0.87134310    -0.27100
C1126       C  0.22828777  0.81739529  0.89956386     0.06500
C1127       C  0.24429445  0.83301299  0.91426287     0.26100
C1128       C  0.26638556  0.83904769  0.90143142    -0.11600
C1129       C  0.27289288  0.82932528  0.87406911    -0.25600
C1130       C  0.25650439  0.81470365  0.85870450     0.36900
C1131       C  0.20679079  0.80769675  0.91481145     0.06500
F1132       F  0.23890682  0.84170772  0.94145891    -0.19300
H1133       H  0.27900205  0.85017734  0.91355651     0.16300
F1134       F  0.26251913  0.80511705  0.83214910    -0.23000
H1135       H  0.22236114  0.79664848  0.85980308     0.18100
C1136       C  0.18374269  0.80868373  0.90200741     0.26100
C1137       C  0.16402146  0.79804258  0.91625768    -0.11600
C1138       C  0.16699645  0.78609316  0.94335908    -0.25600
C1139       C  0.19024338  0.78494824  0.95585575     0.37000
C1140       C  0.20975822  0.79582413  0.94180658    -0.27200
F1141       F  0.18028657  0.82014742  0.87592992    -0.19400
H1142       H  0.14639068  0.79927669  0.90614447     0.16300
F1143       F  0.19453742  0.77240290  0.98096882    -0.23100
H1144       H  0.22748556  0.79433651  0.95165492     0.18100
C1145       C  0.29339386  0.74770653  0.87085482    -0.27100
C1146       C  0.28776467  0.74619999  0.90103364     0.06500
C1147       C  0.29395982  0.76575240  0.91952993     0.26100
C1148       C  0.30356776  0.78693074  0.90766968    -0.11600
C1149       C  0.30795253  0.78879320  0.87740813    -0.25600
C1150       C  0.30360208  0.76878714  0.85914078     0.36900
C1151       C  0.27485418  0.72469002  0.91294216     0.06500
F1152       F  0.29068313  0.76448300  0.94910123    -0.19300
H1153       H  0.30707383  0.80219667  0.92203223     0.16300
F1154       F  0.30792779  0.77015706  0.82978510    -0.23000
H1155       H  0.28904876  0.73291949  0.85613455     0.18100
C1156       C  0.25542247  0.72762032  0.93264020     0.26100
C1157       C  0.24428680  0.70748032  0.94509063    -0.11600
C1158       C  0.25153806  0.68393926  0.93745901    -0.25600
C1159       C  0.26997900  0.68080503  0.91654649     0.37000
C1160       C  0.28165905  0.70104792  0.90460155    -0.27200
F1161       F  0.24679883  0.74995379  0.93950633    -0.19400
H1162       H  0.22972698  0.71030817  0.96066205     0.16300
F1163       F  0.27745747  0.65826166  0.90873873    -0.23100
H1164       H  0.29641267  0.69822255  0.88932301     0.18100
C1165       C  0.28143242  0.87231277  0.75738913    -0.27100
C1166       C  0.29942921  0.88071379  0.73814864     0.06500
C1167       C  0.32362888  0.87981169  0.74736483     0.26100
C1168       C  0.32967619  0.86997691  0.77475098    -0.11600
C1169       C  0.31179772  0.86075612  0.79347647    -0.25600
C1170       C  0.28751770  0.86254547  0.78490295     0.36900
C1171       C  0.29320945  0.88922443  0.70798836     0.06500
F1172       F  0.34156924  0.88737650  0.72929792    -0.19300
H1173       H  0.34846488  0.86905880  0.78111055     0.16300
F1174       F  0.26978942  0.85382705  0.80248853    -0.23000
H1175       H  0.26266432  0.87301022  0.75089641     0.18100
C1176       C  0.27969395  0.87458661  0.68886969     0.26100
C1177       C  0.27576498  0.88170180  0.65969559    -0.11600
C1178       C  0.28533129  0.90349855  0.64864484    -0.25600
C1179       C  0.29827220  0.91849149  0.66820638     0.37000
C1180       C  0.30206240  0.91138087  0.69747033    -0.27200
F1181       F  0.27124004  0.85279778  0.69794136    -0.19400
H1182       H  0.26545673  0.86976222  0.64570637     0.16300
F1183       F  0.30815616  0.93959059  0.65909155    -0.23100
H1184       H  0.31237474  0.92305010  0.71187157     0.18100
C1185       C  0.39142164  0.81294417  0.69871696    -0.27100
C1186       C  0.37874872  0.79548108  0.71484423     0.06500
C1187       C  0.37425568  0.77278380  0.70200281     0.26100
C1188       C  0.38129993  0.76815231  0.67299836    -0.11600
C1189       C  0.39294961  0.78602538  0.65629500    -0.25600
C1190       C  0.39851251  0.80833679  0.66970953     0.36900
C1191       C  0.36817602  0.80197976  0.74370636     0.06500
F1192       F  0.36260386  0.75528638  0.71733071    -0.19300
H1193       H  0.37714780  0.75070696  0.66336594     0.16300
F1194       F  0.40920572  0.82638234  0.65432194    -0.23000
H1195       H  0.39474169  0.83067215  0.70809697     0.18100
C1196       C  0.38231026  0.81219960  0.76619437     0.26100
C1197       C  0.37148398  0.82014693  0.79232681    -0.11600
C1198       C  0.34647209  0.81841562  0.79600875    -0.25600
C1199       C  0.33243578  0.80763363  0.77396023     0.37000
C1200       C  0.34324264  0.79946585  0.74803244    -0.27200
F1201       F  0.40647783  0.81467276  0.76274644    -0.19400
H1202       H  0.38245299  0.82842577  0.80927023     0.16300
F1203       F  0.30823091  0.80542746  0.77733787    -0.23100
H1204       H  0.33200658  0.79189408  0.73087038     0.18100
C1205       C  0.39840874  0.81936890  0.91977151    -0.27100
C1206       C  0.41696231  0.83551337  0.91252049     0.06500
C1207       C  0.41193809  0.85468384  0.89298730     0.26100
C1208       C  0.38882489  0.85730897  0.88072587    -0.11600
C1209       C  0.37054912  0.84069338  0.88748134    -0.25600
C1210       C  0.37552346  0.82179677  0.90727833     0.36900
C1211       C  0.44154214  0.83142123  0.92471387     0.06500
F1212       F  0.42937167  0.87077457  0.88572350    -0.19300
H1213       H  0.38540533  0.87179610  0.86522230     0.16300
F1214       F  0.35824017  0.80549805  0.91437447    -0.23000
H1215       H  0.40186008  0.80437582  0.93454599     0.18100
C1216       C  0.44500921  0.82853435  0.95516308     0.26100
C1217       C  0.46772562  0.82239425  0.96631941    -0.11600
C1218       C  0.48755615  0.81882190  0.94744491    -0.25600
C1219       C  0.48420120  0.82236064  0.91696371     0.37000
C1220       C  0.46142601  0.82862420  0.90582432    -0.27200
F1221       F  0.42634684  0.83158049  0.97417278    -0.19400
H1222       H  0.46956065  0.81985264  0.98983953     0.16300
F1223       F  0.50286933  0.82000919  0.89785977    -0.23100
H1224       H  0.45916736  0.83067222  0.88226239     0.18100
C1225       C  0.59087532  0.19716212  0.92376590    -0.27100
C1226       C  0.57359867  0.17903109  0.91954811     0.06500
C1227       C  0.57950823  0.15878859  0.90204556     0.26100
C1228       C  0.60217073  0.15718910  0.88838169    -0.11600
C1229       C  0.61909045  0.17581871  0.89189296    -0.25600
C1230       C  0.61332616  0.19566523  0.91004649     0.36900
C1231       C  0.54916952  0.18239934  0.93223718     0.06500
F1232       F  0.56331154  0.14074287  0.89800390    -0.19300
H1233       H  0.60618669  0.14187747  0.87425610     0.16300
F1234       F  0.62931020  0.21388277  0.91420035    -0.23000
H1235       H  0.58665908  0.21296771  0.93699281     0.18100
C1236       C  0.54621347  0.18729261  0.96237243     0.26100
C1237       C  0.52353422  0.19343403  0.97359758    -0.11600
C1238       C  0.50327239  0.19502424  0.95504450    -0.25600
C1239       C  0.50615394  0.18936901  0.92495283     0.37000
C1240       C  0.52889853  0.18308618  0.91377036    -0.27200
F1241       F  0.56537486  0.18644474  0.98092344    -0.19400
H1242       H  0.52209682  0.19765687  0.99679508     0.16300
F1243       F  0.48711321  0.18982073  0.90625141    -0.23100
H1244       H  0.53083936  0.17951636  0.89043073     0.18100
C1245       C  0.28721738  0.31368000  0.94362400    -0.27100
C1246       C  0.27992366  0.30541899  0.91587159     0.06500
C1247       C  0.29481953  0.28914116  0.90036716     0.26100
C1248       C  0.31608289  0.28036491  0.91323810    -0.11600
C1249       C  0.32277840  0.28770227  0.94171943    -0.25600
C1250       C  0.30844450  0.30508621  0.95641191     0.36900
C1251       C  0.25603833  0.31260922  0.90424258     0.06500
F1252       F  0.28813388  0.28073290  0.87350395    -0.19300
H1253       H  0.32674707  0.26706474  0.90141882     0.16300
F1254       F  0.31485924  0.31390795  0.98316357    -0.23000
H1255       H  0.27620328  0.32659721  0.95562858     0.18100
C1256       C  0.23512319  0.30815227  0.92084247     0.26100
C1257       C  0.21248200  0.31375708  0.90935528    -0.11600
C1258       C  0.21026190  0.32381898  0.88114926    -0.25600
C1259       C  0.23113833  0.32921868  0.86498148     0.37000
C1260       C  0.25388667  0.32344076  0.87639979    -0.27200
F1261       F  0.23653802  0.29758155  0.94775532    -0.19400
H1262       H  0.19658175  0.30993180  0.92235354     0.16300
F1263       F  0.22949397  0.33923124  0.83778507    -0.23100
H1264       H  0.26982792  0.32726276  0.86347666     0.18100
C1265       C  0.33898521  0.90877369  0.92987638    -0.27100
C1266       C  0.33113561  0.92963455  0.91474559     0.06500
C1267       C  0.32488226  0.92735620  0.88480741     0.26100
C1268       C  0.32647445  0.90500132  0.87059475    -0.11600
C1269       C  0.33337487  0.88404611  0.88589219    -0.25600
C1270       C  0.33959652  0.88609864  0.91584269     0.36900
C1271       C  0.32812636  0.95341025  0.93018166     0.06500
F1272       F  0.31582448  0.94642132  0.86950580    -0.19300
H1273       H  0.32142732  0.90395244  0.84761261     0.16300
F1274       F  0.34474954  0.86615993  0.93210189    -0.23000
H1275       H  0.34410029  0.90985882  0.95280908     0.18100
C1276       C  0.31749214  0.95495807  0.95836066     0.26100
C1277       C  0.31222928  0.97757845  0.97087105    -0.11600
C1278       C  0.31681873  0.99904487  0.95534814    -0.25600
C1279       C  0.32822540  0.99762694  0.92781710     0.37000
C1280       C  0.33423935  0.97508687  0.91571460    -0.27200
F1281       F  0.31085245  0.93473536  0.97318610    -0.19400
H1282       H  0.30347443  0.97827251  0.99218076     0.16300
F1283       F  0.33369163  0.01804012  0.91265436    -0.23100
H1284       H  0.34326855  0.97461197  0.89458872     0.18100
C1285       C  0.19977787  0.19485765  0.89595019    -0.27100
C1286       C  0.19689090  0.21688953  0.91112750     0.06500
C1287       C  0.20468470  0.21841148  0.94047103     0.26100
C1288       C  0.21509204  0.19839218  0.95430255    -0.11600
C1289       C  0.21805744  0.17621908  0.93936669    -0.25600
C1290       C  0.21015325  0.17463815  0.90990379     0.36900
C1291       C  0.18671497  0.23871070  0.89646677     0.06500
F1292       F  0.20303107  0.23961478  0.95553567    -0.19300
H1293       H  0.22130706  0.20059555  0.97670626     0.16300
F1294       F  0.21194815  0.15354977  0.89470016    -0.23000
H1295       H  0.19381952  0.19327580  0.87332481     0.18100
C1296       C  0.19749773  0.24820697  0.87095702     0.26100
C1297       C  0.19072503  0.27112111  0.86059545    -0.11600
C1298       C  0.17285791  0.28467952  0.87516994    -0.25600
C1299       C  0.16075645  0.27443727  0.89919730     0.37000
C1300       C  0.16778428  0.25170864  0.90987680    -0.27200
F1301       F  0.21566766  0.23610457  0.85725888    -0.19400
H1302       H  0.20006545  0.27874476  0.84184007     0.16300
F1303       F  0.14337796  0.28715109  0.91359709    -0.23100
H1304       H  0.15907116  0.24461778  0.92937406     0.18100
C1305       C  0.18735662  0.20182062  0.43634986    -0.27100
C1306       C  0.19545140  0.21266780  0.41020069     0.06500
C1307       C  0.18141565  0.23130669  0.39763482     0.26100
C1308       C  0.16074506  0.23992306  0.41210202    -0.11600
C1309       C  0.15379235  0.23030379  0.43941148    -0.25600
C1310       C  0.16686451  0.21056383  0.45091844     0.36900
C1311       C  0.21948213  0.20600384  0.39778017     0.06500
F1312       F  0.18851071  0.24232893  0.37241355    -0.19300
H1313       H  0.15094330  0.25504506  0.40269881     0.16300
F1314       F  0.16001364  0.19981947  0.47642582    -0.23000
H1315       H  0.19736258  0.18693617  0.44600464     0.18100
C1316       C  0.23992410  0.20512815  0.41617061     0.26100
C1317       C  0.26279394  0.20076938  0.40432695    -0.11600
C1318       C  0.26586218  0.19720444  0.37399900    -0.25600
C1319       C  0.24551771  0.19733943  0.35563184     0.37000
C1320       C  0.22252635  0.20173459  0.36744335    -0.27200
F1321       F  0.23800068  0.20962601  0.44546624    -0.19400
H1322       H  0.27830564  0.20069977  0.41880455     0.16300
F1323       F  0.24795749  0.19423309  0.32618894    -0.23100
H1324       H  0.20711806  0.20208756  0.35282668     0.18100
C1325       C  0.27790576  0.27444567  0.36997497    -0.27100
C1326       C  0.28474948  0.28130282  0.39852600     0.06500
C1327       C  0.30106327  0.26658183  0.41421583     0.26100
C1328       C  0.30931171  0.24484953  0.40209289    -0.11600
C1329       C  0.30161081  0.23748492  0.37420872    -0.25600
C1330       C  0.28619204  0.25262339  0.35789679     0.36900
C1331       C  0.27290159  0.30212697  0.41327670     0.06500
F1332       F  0.30834127  0.27288306  0.44169857    -0.19300
H1333       H  0.32072176  0.23306098  0.41527994     0.16300
F1334       F  0.27837257  0.24575728  0.33085518    -0.23000
H1335       H  0.26515888  0.28538754  0.35762497     0.18100
C1336       C  0.27222092  0.32535225  0.40058305     0.26100
C1337       C  0.26127013  0.34465575  0.41571380    -0.11600
C1338       C  0.25086806  0.34102367  0.44360340    -0.25600
C1339       C  0.25082051  0.31753157  0.45559231     0.37000
C1340       C  0.26171336  0.29841680  0.44055641    -0.27200
F1341       F  0.28274074  0.32950620  0.37408992    -0.19400
H1342       H  0.26147091  0.36254869  0.40596888     0.16300
F1343       F  0.23975146  0.31277060  0.48157528    -0.23100
H1344       H  0.26128549  0.28048781  0.45023841     0.18100
C1345       C  0.29916063  0.11155351  0.19868431    -0.27100
C1346       C  0.29838466  0.13640574  0.20530343     0.06500
C1347       C  0.29557469  0.15314879  0.18228744     0.26100
C1348       C  0.29234845  0.14511876  0.15348122    -0.11600
C1349       C  0.29223446  0.12028174  0.14688524    -0.25600
C1350       C  0.29614468  0.10348026  0.16967421     0.36900
C1351       C  0.30055238  0.14495310  0.23607758     0.06500
F1352       F  0.29618073  0.17732837  0.18760756    -0.19300
H1353       H  0.29001049  0.15844370  0.13622511     0.16300
F1354       F  0.29596381  0.07931677  0.16420659    -0.23000
H1355       H  0.30149213  0.09837896  0.21611763     0.18100
C1356       C  0.28382040  0.16164987  0.24775099     0.26100
C1357       C  0.28738663  0.17156222  0.27568662    -0.11600
C1358       C  0.30728332  0.16457379  0.29257494    -0.25600
C1359       C  0.32331208  0.14698314  0.28169181     0.37000
C1360       C  0.31997268  0.13727235  0.25357106    -0.27200
F1361       F  0.26417986  0.16854717  0.23199184    -0.19400
H1362       H  0.27506372  0.18530175  0.28371504     0.16300
F1363       F  0.34265212  0.13990960  0.29785569    -0.23100
H1364       H  0.33300734  0.12437920  0.24504164     0.18100
C1365       C  0.34332788  0.22697732  0.25076467    -0.27100
C1366       C  0.36344441  0.21370764  0.24066753     0.06500
C1367       C  0.37428106  0.19683029  0.25987215     0.26100
C1368       C  0.36415819  0.19233608  0.28759461    -0.11600
C1369       C  0.34297957  0.20423967  0.29638850    -0.25600
C1370       C  0.33293357  0.22201820  0.27811686     0.36900
C1371       C  0.37164512  0.21637248  0.20953413     0.06500
F1372       F  0.39359523  0.18345887  0.25118479    -0.19300
H1373       H  0.37203331  0.17850761  0.30152668     0.16300
F1374       F  0.31235396  0.23367363  0.28605439    -0.23000
H1375       H  0.33503816  0.24062970  0.23694641     0.18100
C1376       C  0.35461792  0.21738228  0.18657276     0.26100
C1377       C  0.36201179  0.22048245  0.15749623    -0.11600
C1378       C  0.38653654  0.22224484  0.15028124    -0.25600
C1379       C  0.40373840  0.22039698  0.17293717     0.37000
C1380       C  0.39630049  0.21771958  0.20231081    -0.27200
F1381       F  0.33071222  0.21491577  0.19206330    -0.19400
H1382       H  0.34837108  0.22122568  0.14047434     0.16300
F1383       F  0.42763146  0.22208898  0.16691995    -0.23100
H1384       H  0.40983729  0.21719189  0.21945684     0.18100
C1385       C  0.40125447  0.16165027  0.39801752    -0.27100
C1386       C  0.40821137  0.18109601  0.41609967     0.06500
C1387       C  0.39207856  0.20056672  0.41998937     0.26100
C1388       C  0.36955904  0.20041843  0.40623828    -0.11600
C1389       C  0.36238051  0.18093536  0.38850456    -0.25600
C1390       C  0.37858459  0.16151777  0.38429028     0.36900
C1391       C  0.43263439  0.18172315  0.42970156     0.06500
F1392       F  0.39854893  0.22025466  0.43602573    -0.19300
H1393       H  0.35775235  0.21601038  0.40909380     0.16300
F1394       F  0.37312364  0.14313033  0.36563725    -0.23000
H1395       H  0.41356332  0.14664000  0.39425220     0.18100
C1396       C  0.43552192  0.18586895  0.46006250     0.26100
C1397       C  0.45859033  0.18822480  0.47225374    -0.11600
C1398       C  0.47931563  0.18668921  0.45446719    -0.25600
C1399       C  0.47641441  0.18169032  0.42422777     0.37000
C1400       C  0.45331374  0.17915877  0.41208677    -0.27200
F1401       F  0.41599705  0.18767242  0.47797226    -0.19400
H1402       H  0.46015047  0.19193961  0.49557221     0.16300
F1403       F  0.49585066  0.17901563  0.40635786    -0.23100
H1404       H  0.45154757  0.17579282  0.38869607     0.18100
C1405       C  0.29197867  0.05734644  0.41604341    -0.27100
C1406       C  0.31031003  0.07196554  0.42777971     0.06500
C1407       C  0.32256307  0.06386149  0.45309047     0.26100
C1408       C  0.31676929  0.04148379  0.46588754    -0.11600
C1409       C  0.29879524  0.02662582  0.45365866    -0.25600
C1410       C  0.28633225  0.03496768  0.42861386     0.36900
C1411       C  0.31616817  0.09555220  0.41342773     0.06500
F1412       F  0.34059470  0.07721168  0.46498844    -0.19300
H1413       H  0.32672296  0.03556438  0.48508592     0.16300
F1414       F  0.26810472  0.02194043  0.41667240    -0.23000
H1415       H  0.28170749  0.06341394  0.39714872     0.18100
C1416       C  0.31830684  0.09709384  0.38256649     0.26100
C1417       C  0.32118319  0.11953719  0.36887543    -0.11600
C1418       C  0.32267509  0.14086606  0.38551113    -0.25600
C1419       C  0.32155733  0.13943715  0.41635039     0.37000
C1420       C  0.31825095  0.11695361  0.43015660    -0.27200
F1421       F  0.31738882  0.07688885  0.36554879    -0.19400
H1422       H  0.32183702  0.12033111  0.34504483     0.16300
F1423       F  0.32210049  0.15989328  0.43293785    -0.23100
H1424       H  0.31630338  0.11641613  0.45388624     0.18100
loop_ 
_geom_bond_atom_site_label_1 
_geom_bond_atom_site_label_2 
_geom_bond_distance 
_geom_bond_site_symmetry_2 
_ccdc_geom_bond_type 
C1            H2   1.111       .  S
C1            C7   1.534       .  S
C1            C6   1.532       .  S
C1            C5   1.540       .  S
C3            H4   1.111       .  S
C3            C9   1.533       .  S
C3            C8   1.545       .  S
C3           C10   1.538       .  S
C5            C8   1.381       .  D
C5         C1418   1.484       .  S
C6            C9   1.369       .  D
C6         C1358   1.474       .  S
C7           C10   1.371       .  D
C7         C1318   1.486       .  S
C8         C1389   1.491       .  S
C9         C1369   1.480       .  S
C10        C1329   1.478       .  S
N11          N12   1.320       .  A
N11          C15   1.347       .  A
N11         Cu19   2.070       .  S
N12          C13   1.341       .  A
N12         Cu18   2.061       .  S
C13          C14   1.383       .  A
C13          H16   1.081       .  S
C14          C15   1.387       .  A
C14        C1349   1.478       .  S
C15          H17   1.082       .  S
Cu18         N21   2.062   1_554  S
Cu19         N29   2.072   1_554  S
Cu20         N22   2.099       .  S
Cu20         N28   2.101       .  S
N21          N22   1.320       .  A
N21          C25   1.341       .  A
N22          C23   1.351       .  A
C23          C24   1.395       .  A
C23          H26   1.081       .  S
C24          C25   1.386       .  A
C24        C1289   1.493       .  S
C25          H27   1.081   1_556  S
N28          N29   1.325       .  A
N28          C32   1.348       .  A
N29          C30   1.345       .  A
C30          C31   1.381       .  A
C30          H33   1.081   1_556  S
C31          C32   1.388       .  A
C31        C1278   1.480   1_545  S
C32          H34   1.082       .  S
N35          N36   1.318       .  A
N35          C39   1.349       .  A
N35         Cu43   2.079       .  S
N36          C37   1.340       .  A
N36         Cu42   2.056       .  S
C37          C38   1.384       .  A
C37          H40   1.081       .  S
C38          C39   1.390       .  A
C38        C1378   1.483       .  S
C39          H41   1.081       .  S
Cu42         N45   2.055   1_554  S
Cu43         N53   2.080   1_554  S
Cu44         N46   2.094       .  S
Cu44         N52   2.096       .  S
N45          N46   1.321       .  A
N45          C49   1.339       .  A
N46          C47   1.351       .  A
C47          C48   1.393       .  A
C47          H50   1.081       .  S
C48          C49   1.382       .  A
C48        C1249   1.485       .  S
C49          H51   1.081   1_556  S
N52          N53   1.325       .  A
N52          C56   1.349       .  A
N53          C54   1.343       .  A
C54          C55   1.385       .  A
C54          H57   1.081   1_556  S
C55          C56   1.391       .  A
C55        C1238   1.490       .  S
C56          H58   1.080       .  S
C59          H60   1.111       .  S
C59          C65   1.535       .  S
C59          C64   1.531       .  S
C59          C63   1.547       .  S
C61          H62   1.112       .  S
C61          C67   1.531       .  S
C61          C66   1.540       .  S
C61          C68   1.534       .  S
C63          C66   1.382       .  D
C63        C1269   1.490       .  S
C64          C67   1.368       .  D
C64        C1129   1.476       .  S
C65          C68   1.374       .  D
C65        C1169   1.489       .  S
C66        C1209   1.486       .  S
C67        C1149   1.480       .  S
C68        C1198   1.475       .  S
N69          N70   1.321       .  A
N69          C73   1.345       .  A
N69         Cu77   2.068       .  S
N70          C71   1.344       .  A
N70         Cu76   2.076       .  S
C71          C72   1.386       .  A
C71          H74   1.081       .  S
C72          C73   1.386       .  A
C72        C1189   1.481       .  S
C73          H75   1.081       .  S
Cu76         N79   2.076       .  S
Cu77         N87   2.068       .  S
Cu78         N80   2.082       .  S
Cu78         N86   2.083       .  S
N79          N80   1.321       .  A
N79          C83   1.345       .  A
N80          C81   1.346       .  A
C81          C82   1.390       .  A
C81          H84   1.082       .  S
C82          C83   1.389       .  A
C82        C1118   1.492       .  S
C83          H85   1.082       .  S
N86          N87   1.322       .  A
N86          C90   1.346       .  A
N87          C88   1.344       .  A
C88          C89   1.384       .  A
C88          H91   1.082       .  S
C89          C90   1.388       .  A
C89        C1089   1.483       .  S
C90          H92   1.081       .  S
N93          N94   1.320       .  A
N93          C97   1.349       .  A
N93        Cu101   2.094       .  S
N94          C95   1.343       .  A
N94        Cu100   2.069       .  S
C95          C96   1.389       .  A
C95          H98   1.080       .  S
C96          C97   1.396       .  A
C96        C1178   1.498       .  S
C97          H99   1.079       .  S
Cu100       N103   2.069       .  S
Cu101       N111   2.095       .  S
Cu102       N104   2.092       .  S
Cu102       N110   2.094       .  S
N103        N104   1.321       .  A
N103        C107   1.343       .  A
N104        C105   1.352       .  A
C105        C106   1.390       .  A
C105        H108   1.081       .  S
C106        C107   1.384       .  A
C106       C1078   1.484       .  S
C107        H109   1.080       .  S
N110        N111   1.325       .  A
N110        C114   1.346       .  A
N111        C112   1.349       .  A
C112        C113   1.388   1_565  A
C112        H115   1.083   1_565  S
C113        C114   1.388   1_545  A
C113       C1409   1.492       .  S
C114        H116   1.081       .  S
C117        H118   1.111       .  S
C117        C123   1.536       .  S
C117        C122   1.534       .  S
C117        C121   1.543       .  S
C119        H120   1.111       .  S
C119        C125   1.534       .  S
C119        C124   1.540       .  S
C119        C126   1.530       .  S
C121        C124   1.376       .  D
C121       C1049   1.480       .  S
C122        C125   1.376       .  D
C122       C1018   1.487       .  S
C123        C126   1.370       .  D
C123        C969   1.483       .  S
C124       C1098   1.486       .  S
C125       C1038   1.481       .  S
C126        C989   1.476       .  S
N127        N128   1.320       .  A
N127        C131   1.345       .  A
N127       Cu135   2.070       .  S
N128        C129   1.343       .  A
N128       Cu134   2.066       .  S
C129        C130   1.385       .  A
C129        H132   1.082       .  S
C130        C131   1.386       .  A
C130       C1009   1.479       .  S
C131        H133   1.083       .  S
Cu134       N137   2.067   1_554  S
Cu135       N145   2.071   1_554  S
Cu136       N138   2.097       .  S
Cu136       N144   2.098       .  S
N137        N138   1.322       .  A
N137        C141   1.342       .  A
N138        C139   1.351       .  A
C139        C140   1.391       .  A
C139        H142   1.081       .  S
C140        C141   1.384       .  A
C140        C949   1.487       .  S
C141        H143   1.081       .  S
N144        N145   1.323       .  A
N144        C148   1.349       .  A
N145        C146   1.345       .  A
C146        C147   1.383       .  A
C146        H149   1.080   1_556  S
C147        C148   1.390       .  A
C147        C929   1.486   1_565  S
C148        H150   1.081       .  S
N151        N152   1.320       .  A
N151        C155   1.346       .  A
N151       Cu159   2.081       .  S
N152        C153   1.343       .  A
N152       Cu158   2.064       .  S
C153        C154   1.386       .  A
C153        H156   1.081       .  S
C154        C155   1.389       .  A
C154       C1029   1.484       .  S
C155        H157   1.081       .  S
Cu158       N161   2.064   1_554  S
Cu159       N169   2.082   1_554  S
Cu160       N162   2.089       .  S
Cu160       N168   2.090       .  S
N161        N162   1.323       .  A
N161        C165   1.342       .  A
N162        C163   1.348       .  A
C163        C164   1.388       .  A
C163        H166   1.082       .  S
C164        C165   1.381       .  A
C164        C918   1.478       .  S
C165        H167   1.082       .  S
N168        N169   1.322       .  A
N168        C172   1.349       .  A
N169        C170   1.345       .  A
C170        C171   1.388       .  A
C170        H173   1.081   1_556  S
C171        C172   1.391       .  A
C171       C1218   1.492       .  S
C172        H174   1.080       .  S
C175        H176   1.111       .  S
C175        C181   1.530       .  S
C175        C180   1.534       .  S
C175        C179   1.543       .  S
C177        H178   1.111       .  S
C177        C183   1.534       .  S
C177        C182   1.546       .  S
C177        C184   1.536       .  S
C179        C182   1.383       .  D
C179        C938   1.494       .  S
C180        C183   1.370       .  D
C180        C838   1.478       .  S
C181        C184   1.371       .  D
C181        C878   1.480       .  S
C182       C1229   1.484       .  S
C183        C849   1.485       .  S
C184        C889   1.480       .  S
N185        N186   1.321       .  A
N185        C189   1.350       .  A
N185       Cu193   2.090       .  S
N186        C187   1.341       .  A
N186       Cu192   2.062       .  S
C187        C188   1.382       .  A
C187        H190   1.082       .  S
C188        C189   1.390       .  A
C188        C898   1.482       .  S
C189        H191   1.083       .  S
Cu192       N195   2.062       .  S
Cu193       N203   2.093       .  S
Cu194       N196   2.096       .  S
Cu194       N202   2.098       .  S
N195        N196   1.321       .  A
N195        C199   1.341       .  A
N196        C197   1.351       .  A
C197        C198   1.392       .  A
C197        H200   1.082       .  S
C198        C199   1.383       .  A
C198        C818   1.487       .  S
C199        H201   1.083       .  S
N202        N203   1.325       .  A
N202        C206   1.348       .  A
N203        C204   1.348       .  A
C204        C205   1.388       .  A
C204        H207   1.080       .  S
C205        C206   1.389       .  A
C205       C1398   1.492       .  S
C206        H208   1.081       .  S
N209        N210   1.320       .  A
N209        C213   1.350       .  A
N209       Cu217   2.088       .  S
N210        C211   1.342       .  A
N210       Cu216   2.066       .  S
C211        C212   1.386       .  A
C211        H214   1.081       .  S
C212        C213   1.391       .  A
C212        C869   1.488       .  S
C213        H215   1.082       .  S
Cu216       N219   2.065       .  S
Cu217       N227   2.089       .  S
Cu218       N220   2.086       .  S
Cu218       N226   2.088       .  S
N219        N220   1.321       .  A
N219        C223   1.342       .  A
N220        C221   1.349       .  A
C221        C222   1.390       .  A
C221        H224   1.081       .  S
C222        C223   1.384       .  A
C222        C789   1.483       .  S
C223        H225   1.081       .  S
N226        N227   1.323       .  A
N226        C230   1.346       .  A
N227        C228   1.346       .  A
C228        C229   1.390       .  A
C228        H231   1.080       .  S
C229        C230   1.391       .  A
C229       C1058   1.495   1_545  S
C230        H232   1.079       .  S
C233        H234   1.110       .  S
C233        C239   1.531       .  S
C233        C238   1.536       .  S
C233        C237   1.545       .  S
C235        H236   1.111       .  S
C235        C241   1.532       .  S
C235        C240   1.546       .  S
C235        C242   1.532       .  S
C237        C240   1.386       .  D
C237        C749   1.488       .  S
C238        C241   1.369       .  D
C238        C809   1.482       .  S
C239        C242   1.367       .  D
C239        C729   1.477       .  S
C240        C769   1.493       .  S
C241        C798   1.481       .  S
C242        C709   1.476       .  S
N243        N244   1.320       .  A
N243        C247   1.348       .  A
N243       Cu251   2.078       .  S
N244        C245   1.340       .  A
N244       Cu250   2.060       .  S
C245        C246   1.382       .  A
C245        H248   1.083       .  S
C246        C247   1.387       .  A
C246        C718   1.478       .  S
C247        H249   1.083       .  S
Cu250       N253   2.060   1_554  S
Cu251       N261   2.080       .  S
Cu252       N254   2.087       .  S
Cu252       N260   2.088       .  S
N253        N254   1.321       .  A
N253        C257   1.341       .  A
N254        C255   1.349       .  A
C255        C256   1.391       .  A
C255        H258   1.082       .  S
C256        C257   1.384       .  A
C256        C829   1.485       .  S
C257        H259   1.081   1_556  S
N260        N261   1.324   1_556  A
N260        C264   1.347       .  A
N261        C262   1.345       .  A
C262        C263   1.384   1_554  A
C262        H265   1.080       .  S
C263        C264   1.386       .  A
C263        C698   1.482   1_655  S
C264        H266   1.082       .  S
N267        N268   1.320       .  A
N267        C271   1.348       .  A
N267       Cu275   2.080       .  S
N268        C269   1.341       .  A
N268       Cu274   2.064       .  S
C269        C270   1.384       .  A
C269        H272   1.082       .  S
C270        C271   1.389       .  A
C270        C738   1.483       .  S
C271        H273   1.081       .  S
Cu274       N277   2.064   1_554  S
Cu275       N285   2.081       .  S
Cu276       N278   2.092       .  S
Cu276       N284   2.093       .  S
N277        N278   1.321       .  A
N277        C281   1.342       .  A
N278        C279   1.351       .  A
C279        C280   1.392       .  A
C279        H282   1.081       .  S
C280        C281   1.384       .  A
C280        C858   1.487       .  S
C281        H283   1.082   1_556  S
N284        N285   1.323   1_556  A
N284        C288   1.345       .  A
N285        C286   1.346       .  A
C286        C287   1.390   1_554  A
C286        H289   1.080       .  S
C287        C288   1.391       .  A
C287        C669   1.495       .  S
C288        H290   1.081       .  S
C291        H292   1.111       .  S
C291        C297   1.534       .  S
C291        C296   1.533       .  S
C291        C295   1.541       .  S
C293        H294   1.111       .  S
C293        C299   1.531       .  S
C293        C298   1.543       .  S
C293        C300   1.532       .  S
C295        C298   1.382       .  D
C295        C649   1.486       .  S
C296        C299   1.373       .  D
C296        C638   1.485       .  S
C297        C300   1.372       .  D
C297       C1258   1.481       .  S
C298        C689   1.491       .  S
C299        C609   1.476       .  S
C300       C1298   1.484       .  S
N301        N302   1.321       .  A
N301        C305   1.350       .  A
N301       Cu309   2.093       .  S
N302        C303   1.341       .  A
N302       Cu308   2.058       .  S
C303        C304   1.383       .  A
C303        H306   1.081       .  S
C304        C305   1.391       .  A
C304        C629   1.484       .  S
C305        H307   1.082       .  S
Cu308       N311   2.058       .  S
Cu309       N319   2.095       .  S
Cu310       N312   2.080       .  S
Cu310       N318   2.081       .  S
N311        N312   1.320       .  A
N311        C315   1.340       .  A
N312        C313   1.349       .  A
C313        C314   1.389       .  A
C313        H316   1.081       .  S
C314        C315   1.383       .  A
C314       C1338   1.482       .  S
C315        H317   1.081       .  S
N318        N319   1.325       .  A
N318        C322   1.346       .  A
N319        C320   1.348       .  A
C320        C321   1.387       .  A
C320        H323   1.080       .  S
C321        C322   1.384       .  A
C321        C589   1.483       .  S
C322        H324   1.081       .  S
N325        N326   1.319       .  A
N325        C329   1.345       .  A
N325       Cu333   2.070       .  S
N326        C327   1.341       .  A
N326       Cu332   2.065       .  S
C327        C328   1.388       .  A
C327        H330   1.081       .  S
C328        C329   1.391       .  A
C328        C618   1.488       .  S
C329        H331   1.080       .  S
Cu332       N335   2.066       .  S
Cu333       N343   2.072       .  S
Cu334       N336   2.095       .  S
Cu334       N342   2.096       .  S
N335        N336   1.322       .  A
N335        C339   1.343       .  A
N336        C337   1.350       .  A
C337        C338   1.390       .  A
C337        H340   1.081       .  S
C338        C339   1.384       .  A
C338       C1309   1.485       .  S
C339        H341   1.081       .  S
N342        N343   1.324       .  A
N342        C346   1.348       .  A
N343        C344   1.345       .  A
C344        C345   1.383       .  A
C344        H347   1.081   1_455  S
C345        C346   1.387       .  A
C345        C778   1.482   1_455  S
C346        H348   1.083       .  S
C349        H350   1.111       .  S
C349        C355   1.532       .  S
C349        C354   1.541       .  S
C349        C353   1.542       .  S
C351        H352   1.111       .  S
C351        C357   1.531       .  S
C351        C356   1.543       .  S
C351        C358   1.531       .  S
C353        C356   1.381       .  D
C353        C598   1.489       .  S
C354        C357   1.373       .  D
C354       C1109   1.486       .  S
C355        C358   1.371       .  D
C355        C558   1.482       .  S
C356        C569   1.481       .  S
C357       C1069   1.483       .  S
C358        C529   1.478       .  S
N359        N360   1.320       .  A
N359        C363   1.349       .  A
N359       Cu367   2.083       .  S
N360        C361   1.340       .  A
N360       Cu366   2.061       .  S
C361        C362   1.385       .  A
C361        H364   1.081       .  S
C362        C363   1.391       .  A
C362        C538   1.487       .  S
C363        H365   1.081       .  S
Cu366       N369   2.060   1_554  S
Cu367       N377   2.084   1_554  S
Cu368       N370   2.088       .  S
Cu368       N376   2.090       .  S
N369        N370   1.320       .  A
N369        C373   1.341       .  A
N370        C371   1.349       .  A
C371        C372   1.391       .  A
C371        H374   1.081       .  S
C372        C373   1.385       .  A
C372       C1138   1.487       .  S
C373        H375   1.081   1_556  S
N376        N377   1.324       .  A
N376        C380   1.347       .  A
N377        C378   1.346       .  A
C378        C379   1.387       .  A
C378        H381   1.081   1_556  S
C379        C380   1.388       .  A
C379        C518   1.488   1_455  S
C380        H382   1.082       .  S
N383        N384   1.318       .  A
N383        C387   1.348       .  A
N383       Cu391   2.081       .  S
N384        C385   1.342       .  A
N384       Cu390   2.065       .  S
C385        C386   1.390       .  A
C385        H388   1.080       .  S
C386        C387   1.394       .  A
C386        C549   1.495       .  S
C387        H389   1.079       .  S
Cu390       N393   2.065   1_554  S
Cu391       N401   2.083   1_554  S
Cu392       N394   2.092       .  S
Cu392       N400   2.093       .  S
N393        N394   1.323       .  A
N393        C397   1.341       .  A
N394        C395   1.351       .  A
C395        C396   1.389       .  A
C395        H398   1.082       .  S
C396        C397   1.380       .  A
C396       C1158   1.479       .  S
C397        H399   1.083       .  S
N400        N401   1.324       .  A
N400        C404   1.349       .  A
N401        C402   1.344       .  A
C402        C403   1.385       .  A
C402        H405   1.082   1_556  S
C403        C404   1.389       .  A
C403        C658   1.487       .  S
C404        H406   1.082       .  S
C407        H408   1.111       .  S
C407        C413   1.534       .  S
C407        C412   1.537       .  S
C407        C411   1.542       .  S
C409        H410   1.110       .  S
C409        C415   1.531       .  S
C409        C414   1.545       .  S
C409        C416   1.536       .  S
C411        C414   1.381       .  D
C411        C678   1.481       .  S
C412        C415   1.375       .  D
C412        C498   1.490       .  S
C413        C416   1.369       .  D
C413        C909   1.477       .  S
C414        C509   1.496       .  S
C415        C469   1.478       .  S
C416        C958   1.485       .  S
N417        N418   1.321       .  A
N417        C421   1.347       .  A
N417       Cu425   2.079       .  S
N418        C419   1.343       .  A
N418       Cu424   2.073       .  S
C419        C420   1.386       .  A
C419        H422   1.082       .  S
C420        C421   1.387       .  A
C420        C489   1.484       .  S
C421        H423   1.083       .  S
Cu424       N427   2.073       .  S
Cu425       N435   2.080       .  S
Cu426       N428   2.075       .  S
Cu426       N434   2.076       .  S
N427        N428   1.322       .  A
N427        C431   1.343       .  A
N428        C429   1.348       .  A
C429        C430   1.385       .  A
C429        H432   1.082       .  S
C430        C431   1.383       .  A
C430        C998   1.477       .  S
C431        H433   1.082       .  S
N434        N435   1.323       .  A
N434        C438   1.344       .  A
N435        C436   1.345       .  A
C436        C437   1.386       .  A
C436        H439   1.082       .  S
C437        C438   1.386       .  A
C437        C758   1.482       .  S
C438        H440   1.083       .  S
N441        N442   1.319       .  A
N441        C445   1.346       .  A
N441       Cu449   2.070       .  S
N442        C443   1.341       .  A
N442       Cu448   2.058       .  S
C443        C444   1.385       .  A
C443        H446   1.082       .  S
C444        C445   1.389       .  A
C444        C478   1.481       .  S
C445        H447   1.081       .  S
Cu448       N451   2.059       .  S
Cu449       N459   2.071       .  S
Cu450       N452   2.097       .  S
Cu450       N458   2.098       .  S
N451        N452   1.321       .  A
N451        C455   1.341       .  A
N452        C453   1.349       .  A
C453        C454   1.393       .  A
C453        H456   1.081       .  S
C454        C455   1.385       .  A
C454        C978   1.491       .  S
C455        H457   1.080       .  S
N458        N459   1.323       .  A
N458        C462   1.350       .  A
N459        C460   1.341       .  A
C460        C461   1.384       .  A
C460        H463   1.081       .  S
C461        C462   1.392       .  A
C461        C578   1.489       .  S
C462        H464   1.083       .  S
C465        C466   1.405       .  A
C465        C470   1.398       .  A
C465        H475   1.083       .  S
C466        C467   1.404       .  A
C466        C471   1.476       .  S
C467        C468   1.395       .  A
C467        F472   1.357       .  S
C468        C469   1.402       .  A
C468        H473   1.083       .  S
C469        C470   1.403       .  A
C470        F474   1.357       .  S
C471        C476   1.403       .  A
C471        C480   1.403       .  A
C476        C477   1.395       .  A
C476        F481   1.358       .  S
C477        C478   1.406       .  A
C477        H482   1.082       .  S
C478        C479   1.409       .  A
C479        C480   1.399       .  A
C479        F483   1.357       .  S
C480        H484   1.083       .  S
C485        C486   1.403       .  A
C485        C490   1.397       .  A
C485        H495   1.083       .  S
C486        C487   1.407       .  A
C486        C491   1.484       .  S
C487        C488   1.403       .  A
C487        F492   1.357       .  S
C488        C489   1.407       .  A
C488        H493   1.082       .  S
C489        C490   1.408       .  A
C490        F494   1.357       .  S
C491        C496   1.405       .  A
C491        C500   1.406       .  A
C496        C497   1.395       .  A
C496        F501   1.358       .  S
C497        C498   1.404       .  A
C497        H502   1.082       .  S
C498        C499   1.406       .  A
C499        C500   1.404       .  A
C499        F503   1.354       .  S
C500        H504   1.082       .  S
C505        C506   1.400       .  A
C505        C510   1.395       .  A
C505        H515   1.084       .  S
C506        C507   1.405       .  A
C506        C511   1.483       .  S
C507        C508   1.403       .  A
C507        F512   1.357       .  S
C508        C509   1.408       .  A
C508        H513   1.079       .  S
C509        C510   1.409       .  A
C510        F514   1.352       .  S
C511        C516   1.406       .  A
C511        C520   1.402       .  A
C516        C517   1.399       .  A
C516        F521   1.358       .  S
C517        C518   1.406       .  A
C517        H522   1.082       .  S
C518        C519   1.411       .  A
C519        C520   1.401       .  A
C519        F523   1.356       .  S
C520        H524   1.083       .  S
C525        C526   1.406       .  A
C525        C530   1.393       .  A
C525        H535   1.083       .  S
C526        C527   1.411       .  A
C526        C531   1.488       .  S
C527        C528   1.403       .  A
C527        F532   1.357       .  S
C528        C529   1.402       .  A
C528        H533   1.083       .  S
C529        C530   1.401       .  A
C530        F534   1.358       .  S
C531        C536   1.406       .  A
C531        C540   1.407       .  A
C536        C537   1.395       .  A
C536        F541   1.358       .  S
C537        C538   1.406       .  A
C537        H542   1.082       .  S
C538        C539   1.409       .  A
C539        C540   1.403       .  A
C539        F543   1.356       .  S
C540        H544   1.083       .  S
C545        C546   1.403       .  A
C545        C550   1.403       .  A
C545        H555   1.082       .  S
C546        C547   1.403       .  A
C546        C551   1.483       .  S
C547        C548   1.396       .  A
C547        F552   1.358       .  S
C548        C549   1.409       .  A
C548        H553   1.080       .  S
C549        C550   1.414       .  A
C550        F554   1.355       .  S
C551        C556   1.405       .  A
C551        C560   1.407       .  A
C556        C557   1.398       .  A
C556        F561   1.358       .  S
C557        C558   1.405       .  A
C557        H562   1.083       .  S
C558        C559   1.401       .  A
C559        C560   1.400       .  A
C559        F563   1.357       .  S
C560        H564   1.083       .  S
C565        C566   1.408       .  A
C565        C570   1.404       .  A
C565        H575   1.083       .  S
C566        C567   1.408       .  A
C566        C571   1.488       .  S
C567        C568   1.395       .  A
C567        F572   1.358       .  S
C568        C569   1.401       .  A
C568        H573   1.084       .  S
C569        C570   1.406       .  A
C570        F574   1.357       .  S
C571        C576   1.408       .  A
C571        C580   1.402       .  A
C576        C577   1.404   1_455  A
C576        F581   1.357       .  S
C577        C578   1.407       .  A
C577        H582   1.082       .  S
C578        C579   1.411   1_655  A
C579        C580   1.396       .  A
C579        F583   1.356       .  S
C580        H584   1.083       .  S
C585        C586   1.408       .  A
C585        C590   1.402       .  A
C585        H595   1.082       .  S
C586        C587   1.410       .  A
C586        C591   1.494       .  S
C587        C588   1.400       .  A
C587        F592   1.357       .  S
C588        C589   1.403       .  A
C588        H593   1.083       .  S
C589        C590   1.407       .  A
C590        F594   1.357       .  S
C591        C596   1.408       .  A
C591        C600   1.410       .  A
C596        C597   1.398       .  A
C596        F601   1.357       .  S
C597        C598   1.405       .  A
C597        H602   1.083       .  S
C598        C599   1.405       .  A
C599        C600   1.403       .  A
C599        F603   1.357       .  S
C600        H604   1.082       .  S
C605        C606   1.404       .  A
C605        C610   1.397       .  A
C605        H615   1.083       .  S
C606        C607   1.404       .  A
C606        C611   1.474       .  S
C607        C608   1.395       .  A
C607        F612   1.357       .  S
C608        C609   1.403       .  A
C608        H613   1.083       .  S
C609        C610   1.402       .  A
C610        F614   1.357       .  S
C611        C616   1.401       .  A
C611        C620   1.401       .  A
C616        C617   1.393       .  A
C616        F621   1.358       .  S
C617        C618   1.408       .  A
C617        H622   1.081       .  S
C618        C619   1.413       .  A
C619        C620   1.399       .  A
C619        F623   1.356       .  S
C620        H624   1.084       .  S
C625        C626   1.405       .  A
C625        C630   1.398       .  A
C625        H635   1.082       .  S
C626        C627   1.409       .  A
C626        C631   1.489       .  S
C627        C628   1.402       .  A
C627        F632   1.357       .  S
C628        C629   1.405       .  A
C628        H633   1.082       .  S
C629        C630   1.408       .  A
C630        F634   1.357       .  S
C631        C636   1.409       .  A
C631        C640   1.408       .  A
C636        C637   1.395       .  A
C636        F641   1.357       .  S
C637        C638   1.402       .  A
C637        H642   1.083       .  S
C638        C639   1.405       .  A
C639        C640   1.403       .  A
C639        F643   1.357       .  S
C640        H644   1.083       .  S
C645        C646   1.404       .  A
C645        C650   1.396       .  A
C645        H655   1.083       .  S
C646        C647   1.409       .  A
C646        C651   1.488       .  S
C647        C648   1.404       .  A
C647        F652   1.357       .  S
C648        C649   1.405       .  A
C648        H653   1.083       .  S
C649        C650   1.406       .  A
C650        F654   1.358       .  S
C651        C656   1.406       .  A
C651        C660   1.406       .  A
C656        C657   1.398       .  A
C656        F661   1.358       .  S
C657        C658   1.406       .  A
C657        H662   1.083       .  S
C658        C659   1.409       .  A
C659        C660   1.403       .  A
C659        F663   1.357       .  S
C660        H664   1.084       .  S
C665        C666   1.403       .  A
C665        C670   1.403       .  A
C665        H675   1.084       .  S
C666        C667   1.405       .  A
C666        C671   1.486       .  S
C667        C668   1.397       .  A
C667        F672   1.358       .  S
C668        C669   1.408       .  A
C668        H673   1.081       .  S
C669        C670   1.414       .  A
C670        F674   1.356   1_556  S
C671        C676   1.408       .  A
C671        C680   1.405       .  A
C676        C677   1.401       .  A
C676        F681   1.357       .  S
C677        C678   1.402       .  A
C677        H682   1.083       .  S
C678        C679   1.404       .  A
C679        C680   1.399       .  A
C679        F683   1.356       .  S
C680        H684   1.084       .  S
C685        C686   1.403       .  A
C685        C690   1.396       .  A
C685        H695   1.083       .  S
C686        C687   1.410       .  A
C686        C691   1.490       .  S
C687        C688   1.403       .  A
C687        F692   1.357       .  S
C688        C689   1.405       .  A
C688        H693   1.082       .  S
C689        C690   1.409       .  A
C690        F694   1.357       .  S
C691        C696   1.410       .  A
C691        C700   1.405       .  A
C696        C697   1.401       .  A
C696        F701   1.357       .  S
C697        C698   1.404       .  A
C697        H702   1.083   1_455  S
C698        C699   1.407       .  A
C699        C700   1.399       .  A
C699        F703   1.357       .  S
C700        H704   1.082       .  S
C705        C706   1.406       .  A
C705        C710   1.395       .  A
C705        H715   1.082       .  S
C706        C707   1.409       .  A
C706        C711   1.485       .  S
C707        C708   1.401       .  A
C707        F712   1.357       .  S
C708        C709   1.402       .  A
C708        H713   1.081       .  S
C709        C710   1.401       .  A
C710        F714   1.357       .  S
C711        C716   1.409       .  A
C711        C720   1.404       .  A
C716        C717   1.403       .  A
C716        F721   1.357       .  S
C717        C718   1.404       .  A
C717        H722   1.083       .  S
C718        C719   1.406       .  A
C719        C720   1.394       .  A
C719        F723   1.357       .  S
C720        H724   1.084       .  S
C725        C726   1.407       .  A
C725        C730   1.398       .  A
C725        H735   1.083       .  S
C726        C727   1.406       .  A
C726        C731   1.482       .  S
C727        C728   1.398       .  A
C727        F732   1.357       .  S
C728        C729   1.403       .  A
C728        H733   1.083       .  S
C729        C730   1.400       .  A
C730        F734   1.356       .  S
C731        C736   1.405       .  A
C731        C740   1.405       .  A
C736        C737   1.395       .  A
C736        F741   1.358       .  S
C737        C738   1.405       .  A
C737        H742   1.082       .  S
C738        C739   1.409       .  A
C739        C740   1.402       .  A
C739        F743   1.357       .  S
C740        H744   1.083       .  S
C745        C746   1.400       .  A
C745        C750   1.393       .  A
C745        H755   1.083       .  S
C746        C747   1.407       .  A
C746        C751   1.480       .  S
C747        C748   1.404       .  A
C747        F752   1.357       .  S
C748        C749   1.407       .  A
C748        H753   1.082       .  S
C749        C750   1.407       .  A
C750        F754   1.355       .  S
C751        C756   1.406       .  A
C751        C760   1.403       .  A
C756        C757   1.397       .  A
C756        F761   1.358       .  S
C757        C758   1.405       .  A
C757        H762   1.082       .  S
C758        C759   1.409       .  A
C759        C760   1.401       .  A
C759        F763   1.357       .  S
C760        H764   1.083       .  S
C765        C766   1.409       .  A
C765        C770   1.405       .  A
C765        H775   1.083       .  S
C766        C767   1.408       .  A
C766        C771   1.493       .  S
C767        C768   1.395       .  A
C767        F772   1.357       .  S
C768        C769   1.404       .  A
C768        H773   1.082       .  S
C769        C770   1.408       .  A
C770        F774   1.356       .  S
C771        C776   1.410       .  A
C771        C780   1.407       .  A
C776        C777   1.400       .  A
C776        F781   1.357       .  S
C777        C778   1.403       .  A
C777        H782   1.082       .  S
C778        C779   1.407       .  A
C779        C780   1.401       .  A
C779        F783   1.357       .  S
C780        H784   1.082       .  S
C785        C786   1.403       .  A
C785        C790   1.397       .  A
C785        H795   1.083       .  S
C786        C787   1.408       .  A
C786        C791   1.485       .  S
C787        C788   1.401       .  A
C787        F792   1.357       .  S
C788        C789   1.405       .  A
C788        H793   1.083       .  S
C789        C790   1.408       .  A
C790        F794   1.357       .  S
C791        C796   1.408       .  A
C791        C800   1.406       .  A
C796        C797   1.396       .  A
C796        F801   1.357       .  S
C797        C798   1.401       .  A
C797        H802   1.082       .  S
C798        C799   1.402       .  A
C799        C800   1.400       .  A
C799        F803   1.355       .  S
C800        H804   1.083       .  S
C805        C806   1.406       .  A
C805        C810   1.398       .  A
C805        H815   1.083       .  S
C806        C807   1.407       .  A
C806        C811   1.487       .  S
C807        C808   1.402       .  A
C807        F812   1.357       .  S
C808        C809   1.403       .  A
C808        H813   1.082       .  S
C809        C810   1.403       .  A
C810        F814   1.356       .  S
C811        C816   1.406       .  A
C811        C820   1.406       .  A
C816        C817   1.397       .  A
C816        F821   1.358       .  S
C817        C818   1.406       .  A
C817        H822   1.083       .  S
C818        C819   1.408       .  A
C819        C820   1.405       .  A
C819        F823   1.357       .  S
C820        H824   1.083       .  S
C825        C826   1.402       .  A
C825        C830   1.396       .  A
C825        H835   1.083       .  S
C826        C827   1.406       .  A
C826        C831   1.481       .  S
C827        C828   1.401       .  A
C827        F832   1.357       .  S
C828        C829   1.406       .  A
C828        H833   1.082       .  S
C829        C830   1.410       .  A
C830        F834   1.356       .  S
C831        C836   1.408       .  A
C831        C840   1.404       .  A
C836        C837   1.398       .  A
C836        F841   1.357       .  S
C837        C838   1.400       .  A
C837        H842   1.084       .  S
C838        C839   1.405       .  A
C839        C840   1.397       .  A
C839        F843   1.357       .  S
C840        H844   1.083       .  S
C845        C846   1.408       .  A
C845        C850   1.404       .  A
C845        H855   1.083       .  S
C846        C847   1.409       .  A
C846        C851   1.490       .  S
C847        C848   1.397       .  A
C847        F852   1.357       .  S
C848        C849   1.402       .  A
C848        H853   1.083       .  S
C849        C850   1.404       .  A
C850        F854   1.357       .  S
C851        C856   1.409       .  A
C851        C860   1.403       .  A
C856        C857   1.404       .  A
C856        F861   1.357       .  S
C857        C858   1.406       .  A
C857        H862   1.083       .  S
C858        C859   1.409       .  A
C859        C860   1.398       .  A
C859        F863   1.357       .  S
C860        H864   1.083       .  S
C865        C866   1.403       .  A
C865        C870   1.397       .  A
C865        H875   1.083       .  S
C866        C867   1.408       .  A
C866        C871   1.487       .  S
C867        C868   1.404       .  A
C867        F872   1.357       .  S
C868        C869   1.407       .  A
C868        H873   1.082       .  S
C869        C870   1.410       .  A
C870        F874   1.356       .  S
C871        C876   1.409       .  A
C871        C880   1.406       .  A
C876        C877   1.399       .  A
C876        F881   1.357       .  S
C877        C878   1.399       .  A
C877        H882   1.083       .  S
C878        C879   1.405       .  A
C879        C880   1.401       .  A
C879        F883   1.357       .  S
C880        H884   1.083       .  S
C885        C886   1.407       .  A
C885        C890   1.402       .  A
C885        H895   1.083       .  S
C886        C887   1.408       .  A
C886        C891   1.485       .  S
C887        C888   1.395       .  A
C887        F892   1.357       .  S
C888        C889   1.401       .  A
C888        H893   1.083       .  S
C889        C890   1.404       .  A
C890        F894   1.357       .  S
C891        C896   1.409       .  A
C891        C900   1.403       .  A
C896        C897   1.403       .  A
C896        F901   1.357       .  S
C897        C898   1.405       .  A
C897        H902   1.082       .  S
C898        C899   1.408       .  A
C899        C900   1.397       .  A
C899        F903   1.357       .  S
C900        H904   1.083       .  S
C905        C906   1.404       .  A
C905        C910   1.393       .  A
C905        H915   1.084       .  S
C906        C907   1.408       .  A
C906        C911   1.481       .  S
C907        C908   1.401       .  A
C907        F912   1.357       .  S
C908        C909   1.401       .  A
C908        H913   1.084       .  S
C909        C910   1.403       .  A
C910        F914   1.357       .  S
C911        C916   1.405       .  A
C911        C920   1.405       .  A
C916        C917   1.397       .  A
C916        F921   1.358       .  S
C917        C918   1.404       .  A
C917        H922   1.083       .  S
C918        C919   1.407       .  A
C919        C920   1.400       .  A
C919        F923   1.357       .  S
C920        H924   1.084       .  S
C925        C926   1.408       .  A
C925        C930   1.401       .  A
C925        H935   1.083       .  S
C926        C927   1.409       .  A
C926        C931   1.496       .  S
C927        C928   1.401       .  A
C927        F932   1.357       .  S
C928        C929   1.406       .  A
C928        H933   1.083       .  S
C929        C930   1.406       .  A
C930        F934   1.357   1_545  S
C931        C936   1.407       .  A
C931        C940   1.410       .  A
C936        C937   1.396       .  A
C936        F941   1.357       .  S
C937        C938   1.405       .  A
C937        H942   1.083       .  S
C938        C939   1.408       .  A
C939        C940   1.406       .  A
C939        F943   1.356       .  S
C940        H944   1.082       .  S
C945        C946   1.402       .  A
C945        C950   1.395       .  A
C945        H955   1.084       .  S
C946        C947   1.406       .  A
C946        C951   1.483       .  S
C947        C948   1.405       .  A
C947        F952   1.357       .  S
C948        C949   1.407       .  A
C948        H953   1.083       .  S
C949        C950   1.409       .  A
C950        F954   1.357       .  S
C951        C956   1.407       .  A
C951        C960   1.404       .  A
C956        C957   1.396       .  A
C956        F961   1.358       .  S
C957        C958   1.399       .  A
C957        H962   1.080       .  S
C958        C959   1.407       .  A
C959        C960   1.402       .  A
C959        F963   1.357       .  S
C960        H964   1.083       .  S
C965        C966   1.406       .  A
C965        C970   1.400       .  A
C965        H975   1.083       .  S
C966        C967   1.406       .  A
C966        C971   1.483       .  S
C967        C968   1.398       .  A
C967        F972   1.357       .  S
C968        C969   1.404       .  A
C968        H973   1.083       .  S
C969        C970   1.403       .  A
C970        F974   1.355       .  S
C971        C976   1.405       .  A
C971        C980   1.402       .  A
C976        C977   1.401       .  A
C976        F981   1.357       .  S
C977        C978   1.408       .  A
C977        H982   1.082       .  S
C978        C979   1.413       .  A
C979        C980   1.397       .  A
C979        F983   1.356       .  S
C980        H984   1.084       .  S
C985        C986   1.407       .  A
C985        C990   1.395       .  A
C985        H995   1.083       .  S
C986        C987   1.410       .  A
C986        C991   1.487       .  S
C987        C988   1.400       .  A
C987        F992   1.357       .  S
C988        C989   1.401       .  A
C988        H993   1.082       .  S
C989        C990   1.401       .  A
C990        F994   1.358       .  S
C991        C996   1.408       .  A
C991       C1000   1.407       .  A
C996        C997   1.395       .  A
C996       F1001   1.358       .  S
C997        C998   1.402       .  A
C997       H1002   1.084       .  S
C998        C999   1.406       .  A
C999       C1000   1.402       .  A
C999       F1003   1.357       .  S
C1000      H1004   1.083       .  S
C1005      C1006   1.404       .  A
C1005      C1010   1.396       .  A
C1005      H1015   1.082       .  S
C1006      C1007   1.407       .  A
C1006      C1011   1.483       .  S
C1007      C1008   1.399       .  A
C1007      F1012   1.357       .  S
C1008      C1009   1.405       .  A
C1008      H1013   1.082       .  S
C1009      C1010   1.407       .  A
C1010      F1014   1.357       .  S
C1011      C1016   1.407       .  A
C1011      C1020   1.405       .  A
C1016      C1017   1.393       .  A
C1016      F1021   1.358       .  S
C1017      C1018   1.404       .  A
C1017      H1022   1.082       .  S
C1018      C1019   1.405       .  A
C1019      C1020   1.400       .  A
C1019      F1023   1.353       .  S
C1020      H1024   1.082       .  S
C1025      C1026   1.402       .  A
C1025      C1030   1.397       .  A
C1025      H1035   1.084       .  S
C1026      C1027   1.404       .  A
C1026      C1031   1.479       .  S
C1027      C1028   1.400       .  A
C1027      F1032   1.357       .  S
C1028      C1029   1.407       .  A
C1028      H1033   1.083       .  S
C1029      C1030   1.410       .  A
C1030      F1034   1.357       .  S
C1031      C1036   1.407       .  A
C1031      C1040   1.403       .  A
C1036      C1037   1.399       .  A
C1036      F1041   1.357       .  S
C1037      C1038   1.402       .  A
C1037      H1042   1.082       .  S
C1038      C1039   1.405       .  A
C1039      C1040   1.397       .  A
C1039      F1043   1.358       .  S
C1040      H1044   1.084       .  S
C1045      C1046   1.408       .  A
C1045      C1050   1.402       .  A
C1045      H1055   1.083       .  S
C1046      C1047   1.408       .  A
C1046      C1051   1.490       .  S
C1047      C1048   1.397       .  A
C1047      F1052   1.358       .  S
C1048      C1049   1.400       .  A
C1048      H1053   1.082       .  S
C1049      C1050   1.403       .  A
C1050      F1054   1.357       .  S
C1051      C1056   1.405       .  A
C1051      C1060   1.405       .  A
C1056      C1057   1.402       .  A
C1056      F1061   1.357       .  S
C1057      C1058   1.410       .  A
C1057      H1062   1.081       .  S
C1058      C1059   1.411       .  A
C1059      C1060   1.399       .  A
C1059      F1063   1.355   1_565  S
C1060      H1064   1.083       .  S
C1065      C1066   1.407       .  A
C1065      C1070   1.397       .  A
C1065      H1075   1.083       .  S
C1066      C1067   1.411       .  A
C1066      C1071   1.492       .  S
C1067      C1068   1.404       .  A
C1067      F1072   1.357       .  S
C1068      C1069   1.403       .  A
C1068      H1073   1.083       .  S
C1069      C1070   1.402       .  A
C1070      F1074   1.358       .  S
C1071      C1076   1.410       .  A
C1071      C1080   1.406       .  A
C1076      C1077   1.406       .  A
C1076      F1081   1.357       .  S
C1077      C1078   1.406       .  A
C1077      H1082   1.082       .  S
C1078      C1079   1.406       .  A
C1079      C1080   1.396       .  A
C1079      F1083   1.357       .  S
C1080      H1084   1.083       .  S
C1085      C1086   1.403       .  A
C1085      C1090   1.397       .  A
C1085      H1095   1.083       .  S
C1086      C1087   1.404       .  A
C1086      C1091   1.480       .  S
C1087      C1088   1.401       .  A
C1087      F1092   1.357       .  S
C1088      C1089   1.407       .  A
C1088      H1093   1.083       .  S
C1089      C1090   1.408       .  A
C1090      F1094   1.357       .  S
C1091      C1096   1.403       .  A
C1091      C1100   1.404       .  A
C1096      C1097   1.395       .  A
C1096      F1101   1.358       .  S
C1097      C1098   1.404       .  A
C1097      H1102   1.083       .  S
C1098      C1099   1.408       .  A
C1099      C1100   1.403       .  A
C1099      F1103   1.356       .  S
C1100      H1104   1.083       .  S
C1105      C1106   1.407       .  A
C1105      C1110   1.401       .  A
C1105      H1115   1.084       .  S
C1106      C1107   1.407       .  A
C1106      C1111   1.487       .  S
C1107      C1108   1.400       .  A
C1107      F1112   1.357       .  S
C1108      C1109   1.405       .  A
C1108      H1113   1.084       .  S
C1109      C1110   1.403       .  A
C1110      F1114   1.357       .  S
C1111      C1116   1.406       .  A
C1111      C1120   1.404       .  A
C1116      C1117   1.398       .  A
C1116      F1121   1.358       .  S
C1117      C1118   1.407       .  A
C1117      H1122   1.083       .  S
C1118      C1119   1.412       .  A
C1119      C1120   1.403       .  A
C1119      F1123   1.356       .  S
C1120      H1124   1.084       .  S
C1125      C1126   1.404       .  A
C1125      C1130   1.398       .  A
C1125      H1135   1.083       .  S
C1126      C1127   1.408       .  A
C1126      C1131   1.481       .  S
C1127      C1128   1.399       .  A
C1127      F1132   1.357       .  S
C1128      C1129   1.400       .  A
C1128      H1133   1.084       .  S
C1129      C1130   1.404       .  A
C1130      F1134   1.357       .  S
C1131      C1136   1.406       .  A
C1131      C1140   1.401       .  A
C1136      C1137   1.403       .  A
C1136      F1141   1.357       .  S
C1137      C1138   1.407       .  A
C1137      H1142   1.083       .  S
C1138      C1139   1.411       .  A
C1139      C1140   1.395       .  A
C1139      F1143   1.356       .  S
C1140      H1144   1.084       .  S
C1145      C1146   1.408       .  A
C1145      C1150   1.402       .  A
C1145      H1155   1.083       .  S
C1146      C1147   1.411       .  A
C1146      C1151   1.492       .  S
C1147      C1148   1.396       .  A
C1147      F1152   1.357       .  S
C1148      C1149   1.400       .  A
C1148      H1153   1.083       .  S
C1149      C1150   1.402       .  A
C1150      F1154   1.357       .  S
C1151      C1156   1.409       .  A
C1151      C1160   1.409       .  A
C1156      C1157   1.395       .  A
C1156      F1161   1.357       .  S
C1157      C1158   1.402       .  A
C1157      H1162   1.084       .  S
C1158      C1159   1.406       .  A
C1159      C1160   1.404       .  A
C1159      F1163   1.357       .  S
C1160      H1164   1.083       .  S
C1165      C1166   1.407       .  A
C1165      C1170   1.403       .  A
C1165      H1175   1.083       .  S
C1166      C1167   1.407       .  A
C1166      C1171   1.489       .  S
C1167      C1168   1.399       .  A
C1167      F1172   1.357       .  S
C1168      C1169   1.404       .  A
C1168      H1173   1.083       .  S
C1169      C1170   1.406       .  A
C1170      F1174   1.357       .  S
C1171      C1176   1.405       .  A
C1171      C1180   1.405       .  A
C1176      C1177   1.400       .  A
C1176      F1181   1.358       .  S
C1177      C1178   1.410       .  A
C1177      H1182   1.081       .  S
C1178      C1179   1.412       .  A
C1179      C1180   1.402       .  A
C1179      F1183   1.355       .  S
C1180      H1184   1.083       .  S
C1185      C1186   1.403       .  A
C1185      C1190   1.398       .  A
C1185      H1195   1.084       .  S
C1186      C1187   1.405       .  A
C1186      C1191   1.479       .  S
C1187      C1188   1.397       .  A
C1187      F1192   1.358       .  S
C1188      C1189   1.405       .  A
C1188      H1193   1.083       .  S
C1189      C1190   1.409       .  A
C1190      F1194   1.356       .  S
C1191      C1196   1.407       .  A
C1191      C1200   1.405       .  A
C1196      C1197   1.399       .  A
C1196      F1201   1.357       .  S
C1197      C1198   1.401       .  A
C1197      H1202   1.083       .  S
C1198      C1199   1.403       .  A
C1199      C1200   1.395       .  A
C1199      F1203   1.358       .  S
C1200      H1204   1.083       .  S
C1205      C1206   1.404       .  A
C1205      C1210   1.397       .  A
C1205      H1215   1.083       .  S
C1206      C1207   1.409       .  A
C1206      C1211   1.489       .  S
C1207      C1208   1.405       .  A
C1207      F1212   1.357       .  S
C1208      C1209   1.404       .  A
C1208      H1213   1.083       .  S
C1209      C1210   1.405       .  A
C1210      F1214   1.357       .  S
C1211      C1216   1.406       .  A
C1211      C1220   1.405       .  A
C1216      C1217   1.399       .  A
C1216      F1221   1.358       .  S
C1217      C1218   1.407       .  A
C1217      H1222   1.083       .  S
C1218      C1219   1.411       .  A
C1219      C1220   1.404       .  A
C1219      F1223   1.356       .  S
C1220      H1224   1.084       .  S
C1225      C1226   1.402       .  A
C1225      C1230   1.394       .  A
C1225      H1235   1.083       .  S
C1226      C1227   1.408       .  A
C1226      C1231   1.483       .  S
C1227      C1228   1.404       .  A
C1227      F1232   1.357       .  S
C1228      C1229   1.405       .  A
C1228      H1233   1.083       .  S
C1229      C1230   1.406       .  A
C1230      F1234   1.357       .  S
C1231      C1236   1.404       .  A
C1231      C1240   1.404       .  A
C1236      C1237   1.398       .  A
C1236      F1241   1.358       .  S
C1237      C1238   1.408       .  A
C1237      H1242   1.082       .  S
C1238      C1239   1.410       .  A
C1239      C1240   1.402       .  A
C1239      F1243   1.356       .  S
C1240      H1244   1.083       .  S
C1245      C1246   1.401       .  A
C1245      C1250   1.395       .  A
C1245      H1255   1.084       .  S
C1246      C1247   1.406       .  A
C1246      C1251   1.480       .  S
C1247      C1248   1.402       .  A
C1247      F1252   1.357       .  S
C1248      C1249   1.406       .  A
C1248      H1253   1.083       .  S
C1249      C1250   1.411       .  A
C1250      F1254   1.357       .  S
C1251      C1256   1.406       .  A
C1251      C1260   1.405       .  A
C1256      C1257   1.394       .  A
C1256      F1261   1.358       .  S
C1257      C1258   1.403       .  A
C1257      H1262   1.083       .  S
C1258      C1259   1.404       .  A
C1259      C1260   1.401       .  A
C1259      F1263   1.357       .  S
C1260      H1264   1.083       .  S
C1265      C1266   1.410       .  A
C1265      C1270   1.404       .  A
C1265      H1275   1.081       .  S
C1266      C1267   1.409       .  A
C1266      C1271   1.496       .  S
C1267      C1268   1.395       .  A
C1267      F1272   1.357       .  S
C1268      C1269   1.403       .  A
C1268      H1273   1.083       .  S
C1269      C1270   1.408       .  A
C1270      F1274   1.356       .  S
C1271      C1276   1.411       .  A
C1271      C1280   1.409       .  A
C1276      C1277   1.401       .  A
C1276      F1281   1.357       .  S
C1277      C1278   1.404       .  A
C1277      H1282   1.083       .  S
C1278      C1279   1.403       .  A
C1279      C1280   1.399       .  A
C1279      F1283   1.357   1_565  S
C1280      H1284   1.082       .  S
C1285      C1286   1.406       .  A
C1285      C1290   1.406       .  A
C1285      H1295   1.083       .  S
C1286      C1287   1.404       .  A
C1286      C1291   1.487       .  S
C1287      C1288   1.396       .  A
C1287      F1292   1.358       .  S
C1288      C1289   1.408       .  A
C1288      H1293   1.082       .  S
C1289      C1290   1.411       .  A
C1290      F1294   1.356       .  S
C1291      C1296   1.407       .  A
C1291      C1300   1.407       .  A
C1296      C1297   1.401       .  A
C1296      F1301   1.357       .  S
C1297      C1298   1.405       .  A
C1297      H1302   1.083       .  S
C1298      C1299   1.402       .  A
C1299      C1300   1.400       .  A
C1299      F1303   1.357       .  S
C1300      H1304   1.083       .  S
C1305      C1306   1.405       .  A
C1305      C1310   1.399       .  A
C1305      H1315   1.083       .  S
C1306      C1307   1.410       .  A
C1306      C1311   1.492       .  S
C1307      C1308   1.402       .  A
C1307      F1312   1.357       .  S
C1308      C1309   1.405       .  A
C1308      H1313   1.083       .  S
C1309      C1310   1.408       .  A
C1310      F1314   1.357       .  S
C1311      C1316   1.410       .  A
C1311      C1320   1.408       .  A
C1316      C1317   1.398       .  A
C1316      F1321   1.357       .  S
C1317      C1318   1.401       .  A
C1317      H1322   1.083       .  S
C1318      C1319   1.404       .  A
C1319      C1320   1.404       .  A
C1319      F1323   1.355       .  S
C1320      H1324   1.083       .  S
C1325      C1326   1.404       .  A
C1325      C1330   1.399       .  A
C1325      H1335   1.085       .  S
C1326      C1327   1.409       .  A
C1326      C1331   1.481       .  S
C1327      C1328   1.395       .  A
C1327      F1332   1.358       .  S
C1328      C1329   1.397       .  A
C1328      H1333   1.087       .  S
C1329      C1330   1.406       .  A
C1330      F1334   1.357       .  S
C1331      C1336   1.407       .  A
C1331      C1340   1.401       .  A
C1336      C1337   1.403       .  A
C1336      F1341   1.357       .  S
C1337      C1338   1.407       .  A
C1337      H1342   1.083       .  S
C1338      C1339   1.408       .  A
C1339      C1340   1.392       .  A
C1339      F1343   1.357       .  S
C1340      H1344   1.084       .  S
C1345      C1346   1.405       .  A
C1345      C1350   1.401       .  A
C1345      H1355   1.084       .  S
C1346      C1347   1.405       .  A
C1346      C1351   1.480       .  S
C1347      C1348   1.393       .  A
C1347      F1352   1.357       .  S
C1348      C1349   1.403       .  A
C1348      H1353   1.083       .  S
C1349      C1350   1.407       .  A
C1350      F1354   1.357       .  S
C1351      C1356   1.408       .  A
C1351      C1360   1.404       .  A
C1356      C1357   1.396       .  A
C1356      F1361   1.358       .  S
C1357      C1358   1.398       .  A
C1357      H1362   1.082       .  S
C1358      C1359   1.403       .  A
C1359      C1360   1.397       .  A
C1359      F1363   1.357       .  S
C1360      H1364   1.084       .  S
C1365      C1366   1.409       .  A
C1365      C1370   1.397       .  A
C1365      H1375   1.083       .  S
C1366      C1367   1.411       .  A
C1366      C1371   1.493       .  S
C1367      C1368   1.401       .  A
C1367      F1372   1.357       .  S
C1368      C1369   1.402       .  A
C1368      H1373   1.083       .  S
C1369      C1370   1.401       .  A
C1370      F1374   1.357       .  S
C1371      C1376   1.409       .  A
C1371      C1380   1.409       .  A
C1376      C1377   1.394       .  A
C1376      F1381   1.357       .  S
C1377      C1378   1.403       .  A
C1377      H1382   1.083       .  S
C1378      C1379   1.408       .  A
C1379      C1380   1.405       .  A
C1379      F1383   1.357       .  S
C1380      H1384   1.083       .  S
C1385      C1386   1.406       .  A
C1385      C1390   1.404       .  A
C1385      H1395   1.085       .  S
C1386      C1387   1.407       .  A
C1386      C1391   1.490       .  S
C1387      C1388   1.397       .  A
C1387      F1392   1.357       .  S
C1388      C1389   1.402       .  A
C1388      H1393   1.087       .  S
C1389      C1390   1.409       .  A
C1390      F1394   1.357       .  S
C1391      C1396   1.407       .  A
C1391      C1400   1.405       .  A
C1396      C1397   1.401       .  A
C1396      F1401   1.357       .  S
C1397      C1398   1.407       .  A
C1397      H1402   1.082       .  S
C1398      C1399   1.410       .  A
C1399      C1400   1.403       .  A
C1399      F1403   1.357       .  S
C1400      H1404   1.083       .  S
C1405      C1406   1.406       .  A
C1405      C1410   1.399       .  A
C1405      H1415   1.083       .  S
C1406      C1407   1.409       .  A
C1406      C1411   1.494       .  S
C1407      C1408   1.405       .  A
C1407      F1412   1.357       .  S
C1408      C1409   1.408       .  A
C1408      H1413   1.083       .  S
C1409      C1410   1.409       .  A
C1410      F1414   1.356       .  S
C1411      C1416   1.410       .  A
C1411      C1420   1.409       .  A
C1416      C1417   1.397       .  A
C1416      F1421   1.357       .  S
C1417      C1418   1.401       .  A
C1417      H1422   1.084       .  S
C1418      C1419   1.405       .  A
C1419      C1420   1.404       .  A
C1419      F1423   1.357       .  S
C1420      H1424   1.084       .  S
