geometry optimzed in LAMMPS
_audit_creation_date              2020-12-01 
_audit_creation_method            'lammps2cif' 
_symmetry_space_group_name_H-M    'P1' 
_symmetry_Int_Tables_number       1 
_symmetry_cell_setting            triclinic 
loop_ 
_symmetry_equiv_pos_as_xyz 
  x,y,z 
_cell_length_a                    49.37061972 
_cell_length_b                    48.80696307624454 
_cell_length_c                    26.6294820272899 
_cell_angle_alpha                 90.97391066665409 
_cell_angle_beta                  88.58643959027944 
_cell_angle_gamma                 91.99827376251457 
loop_ 
_atom_site_label 
_atom_site_type_symbol 
_atom_site_fract_x 
_atom_site_fract_y 
_atom_site_fract_z 
_atom_site_charge 
C1          C  0.09736542  0.40630596  0.11359447    -0.01800
C2          C  0.88842532  0.41472304  0.11358582    -0.01800
C3          C  0.08307432  0.61578309  0.14675843    -0.01800
C4          C  0.87023944  0.62878201  0.13982494    -0.01800
C5          C  0.37781947  0.11523712  0.10308176    -0.01800
C6          C  0.38515651  0.90350126  0.15474670    -0.01800
C7          C  0.59140551  0.12415529  0.08366360    -0.01800
C8          C  0.59710836  0.90928978  0.11324520    -0.01800
In9        In  0.35974535  0.16728616  0.22578706     1.36900
C10         C  0.39715038  0.20708569  0.21160765     0.78200
O11         O  0.36674181  0.16395835  0.30928527    -0.60200
O12         O  0.35960210  0.12735477  0.26806850    -0.51100
C13         C  0.31134265  0.19003683  0.22338145     0.70900
O14         O  0.31934924  0.17280492  0.19138316    -0.46000
C15         C  0.37151197  0.13448833  0.14708768     0.75600
O16         O  0.37618216  0.20492301  0.18559652    -0.57800
O17         O  0.34835929  0.13480134  0.16835974    -0.47900
O18         O  0.39848694  0.18941576  0.24531525    -0.54300
C19         C  0.36552019  0.13818723  0.30987432     0.85800
O20         O  0.32754705  0.19493999  0.25843228    -0.56100
O21         O  0.38878066  0.15081255  0.16664691    -0.59400
In22       In  0.61811481  0.16779790  0.20974995     1.36900
C23         C  0.58848762  0.21200024  0.22174887     0.78200
O24         O  0.60133918  0.16534688  0.13294752    -0.60200
O25         O  0.61456869  0.12848570  0.16427834    -0.51100
C26         C  0.67019164  0.18480159  0.20533098     0.70900
O27         O  0.65961379  0.16944625  0.17239453    -0.46000
C28         C  0.59833253  0.13515939  0.28221890     0.75600
O29         O  0.59898929  0.20033323  0.25789025    -0.57800
O30         O  0.62354301  0.13838170  0.27359107    -0.47900
O31         O  0.59501052  0.20250916  0.17898619    -0.54300
C32         C  0.60333750  0.13971137  0.12811646     0.85800
O33         O  0.65448578  0.19065317  0.24152465    -0.56100
O34         O  0.58386951  0.14769532  0.25249149    -0.59400
In35       In  0.13052375  0.63486130  0.27073025     1.36900
C36         C  0.17005097  0.59952387  0.26198363     0.78200
O37         O  0.12222072  0.64091974  0.35372170    -0.60200
O38         O  0.09237553  0.61971686  0.31168766    -0.51100
C39         C  0.15343126  0.68522386  0.26713816     0.70900
O40         O  0.12922656  0.68022651  0.25505303    -0.46000
C41         C  0.10065588  0.62234187  0.19136693     0.75600
O42         O  0.16379610  0.61467164  0.22653195    -0.57800
O43         O  0.10487102  0.64666700  0.20712288    -0.47900
O44         O  0.15657502  0.60299192  0.30231544    -0.54300
C45         C  0.09975949  0.62790106  0.35435677     0.85800
O46         O  0.16568185  0.66459630  0.28113001    -0.56100
O47         O  0.11188638  0.60437212  0.21635425    -0.59400
In48       In  0.14059159  0.38165422  0.23779557     1.36900
C49         C  0.18516381  0.41112839  0.25871561     0.78200
O50         O  0.13787504  0.39667669  0.15903204    -0.60200
O51         O  0.10114195  0.38506832  0.19623420    -0.51100
C52         C  0.15827571  0.33070174  0.23364421     0.70900
O53         O  0.16419729  0.34806634  0.20041871    -0.46000
C54         C  0.11009897  0.39876918  0.31480873     0.75600
O55         O  0.17618496  0.39215724  0.28666346    -0.57800
O56         O  0.10800280  0.37469744  0.29671814    -0.47900
O57         O  0.17205173  0.41405528  0.21925113    -0.54300
C58         C  0.11241721  0.39531295  0.15759739     0.85800
O59         O  0.14146307  0.33857262  0.26647048    -0.56100
O60         O  0.12743322  0.41415221  0.29256953    -0.59400
In61       In  0.61221737  0.86059363  0.23618784     1.36900
C62         C  0.57451810  0.82060728  0.23098338     0.78200
O63         O  0.58256743  0.86836051  0.29946594    -0.60200
O64         O  0.61663929  0.89557468  0.29358031    -0.51100
C65         C  0.66131181  0.83848185  0.23920265     0.70900
O66         O  0.65039898  0.84471993  0.19899128    -0.46000
C67         C  0.60596587  0.89191361  0.15634313     0.75600
O68         O  0.59598019  0.81804355  0.25490905    -0.57800
O69         O  0.61303704  0.90163914  0.19855261    -0.47900
O70         O  0.57306835  0.84297939  0.20855235    -0.54300
C71         C  0.59492494  0.88911783  0.31741146     0.85800
O72         O  0.64777693  0.84469318  0.27813812    -0.56100
O73         O  0.60462434  0.86609266  0.15414431    -0.59400
In74       In  0.35053740  0.86246874  0.27799452     1.36900
C75         C  0.37855806  0.81814443  0.25630215     0.78200
O76         O  0.34672650  0.89224666  0.21323962    -0.60200
O77         O  0.38523477  0.87892571  0.23343670    -0.51100
C78         C  0.30013017  0.84254401  0.29430907     0.70900
O79         O  0.30843449  0.85018548  0.25147094    -0.46000
C80         C  0.36553472  0.89152336  0.35808450     0.75600
O81         O  0.36028507  0.82596844  0.22824999    -0.57800
O82         O  0.35292093  0.90227770  0.32290583    -0.47900
O83         O  0.38050479  0.83136428  0.29709450    -0.54300
C84         C  0.37188983  0.89184255  0.20253205     0.85800
O85         O  0.31669428  0.84714096  0.32867270    -0.56100
O86         O  0.36878053  0.86618319  0.35246630    -0.59400
In87       In  0.84152034  0.38494275  0.23498834     1.36900
C88         C  0.79829407  0.41549580  0.22838652     0.78200
O89         O  0.84155817  0.39979390  0.31439487    -0.60200
O90         O  0.87960735  0.39083434  0.28022966    -0.51100
C91         C  0.82434115  0.33227420  0.23497443     0.70900
O92         O  0.81772173  0.34888397  0.20225392    -0.46000
C93         C  0.87326201  0.40415608  0.16004796     0.75600
O94         O  0.80718722  0.40827745  0.26989412    -0.57800
O95         O  0.87253224  0.37917936  0.17216301    -0.47900
O96         O  0.81003577  0.40515247  0.19042013    -0.54300
C97         C  0.86692172  0.39957273  0.31876400     0.85800
O98         O  0.84078142  0.34214310  0.26620457    -0.56100
O99         O  0.85918294  0.41918632  0.18842342    -0.59400
In100      In  0.82240812  0.64108696  0.26934777     1.36900
C101        C  0.78635899  0.60033634  0.25271602     0.78200
O102        O  0.83338726  0.65018359  0.18826575    -0.60200
O103        O  0.86023778  0.62694844  0.22960824    -0.51100
C104        C  0.79472503  0.68624001  0.29122370     0.70900
O105        O  0.81628676  0.68697904  0.26478849    -0.46000
C106        C  0.85425278  0.63114039  0.34555274     0.75600
O107        O  0.79401948  0.60717591  0.29598344    -0.57800
O108        O  0.85273723  0.65477794  0.32723704    -0.47900
O109        O  0.79575659  0.61546470  0.21809942    -0.54300
C110        C  0.85461611  0.63644554  0.18757408     0.85800
O111        O  0.78792361  0.66283072  0.30705308    -0.56100
O112        O  0.83956941  0.61295360  0.32452405    -0.59400
C113        C  0.37283351  0.12200264  0.35578834    -0.01800
C114        C  0.37611441  0.90685611  0.40401985    -0.01800
C115        C  0.58622516  0.11876267  0.32569479    -0.01800
C116        C  0.58481810  0.90416940  0.36463106    -0.01800
C117        C  0.09292280  0.40821655  0.35914567    -0.01800
C118        C  0.88026985  0.41096995  0.36560921    -0.01800
C119        C  0.08423423  0.62045273  0.40238633    -0.01800
C120        C  0.87172867  0.62523565  0.38970087    -0.01800
In121      In  0.33654338  0.87682334  0.53356401     1.36900
C122        C  0.29467552  0.90867270  0.55052774     0.78200
O123        O  0.35832387  0.90987212  0.08063813    -0.60200
O124        O  0.36363782  0.86858019  0.10042522    -0.51100
C125        C  0.31685086  0.82496227  0.53518341     0.70900
O126        O  0.33368951  0.83321911  0.50197722    -0.46000
C127        C  0.36240900  0.89396732  0.44996410     0.75600
O128        O  0.30944311  0.90097122  0.58496103    -0.57800
O129        O  0.37485220  0.88398791  0.48594488    -0.47900
O130        O  0.30018540  0.89866375  0.50766265    -0.54300
C131        C  0.36875741  0.89363064  0.11023870     0.85800
O132        O  0.31107403  0.84279421  0.56787276    -0.56100
O133        O  0.33695498  0.89326538  0.45578012    -0.59400
In134      In  0.32310164  0.13314136  0.48301227     1.36900
C135        C  0.28657487  0.09202640  0.47517794     0.78200
O136        O  0.32935673  0.12729314  0.39951211    -0.60200
O137        O  0.36384516  0.13639225  0.44336234    -0.51100
C138        C  0.29684853  0.17966042  0.49933162     0.70900
O139        O  0.30601072  0.17290215  0.45654998    -0.46000
C140        C  0.36062882  0.12295062  0.05907697     0.75600
O141        O  0.30343517  0.09807959  0.44078300    -0.57800
O142        O  0.36336530  0.14571670  0.03708623    -0.47900
O143        O  0.28750924  0.10771559  0.51319853    -0.54300
C144        C  0.35483701  0.12970142  0.40064235     0.85800
O145        O  0.30181292  0.16324904  0.53325007    -0.56100
O146        O  0.34229878  0.10729927  0.04135818    -0.59400
In147      In  0.85161701  0.36769212  0.49075149     1.36900
C148        C  0.87644275  0.32086364  0.49953190     0.78200
O149        O  0.87082876  0.37033714  0.41473845    -0.60200
O150        O  0.85595403  0.40717799  0.44731868    -0.51100
C151        C  0.79923281  0.35215318  0.48160114     0.70900
O152        O  0.81181319  0.36744774  0.45091791    -0.46000
C153        C  0.87660338  0.39865960  0.06934221     0.75600
O154        O  0.86425157  0.33223922  0.53589391    -0.57800
O155        O  0.85183452  0.39907245  0.05820592    -0.47900
O156        O  0.87397321  0.33222284  0.45774003    -0.54300
C157        C  0.86815968  0.39585048  0.41054133     0.85800
O158        O  0.81258654  0.34666956  0.51956596    -0.56100
O159        O  0.89044635  0.38346307  0.04094568    -0.59400
In160      In  0.10798910  0.35832428  0.48170020     1.36900
C161        C  0.06864607  0.32002451  0.47359736     0.78200
O162        O  0.10444380  0.36428664  0.06639449    -0.60200
O163        O  0.11132167  0.40033654  0.02493840    -0.51100
C164        C  0.15497135  0.33285490  0.47526353     0.70900
O165        O  0.15218922  0.35633057  0.45741394    -0.46000
C166        C  0.09856770  0.39020750  0.40347250     0.75600
O167        O  0.08692241  0.32345695  0.44017872    -0.57800
O168        O  0.12164063  0.38919999  0.42290446    -0.47900
O169        O  0.07121096  0.33538504  0.51189534    -0.54300
C170        C  0.10544284  0.39003691  0.06700442     0.85800
O171        O  0.13386082  0.32263210  0.49598628    -0.56100
O172        O  0.08064604  0.37492434  0.42415283    -0.59400
In173      In  0.84719886  0.67098012  0.51500962     1.36900
C174        C  0.88875396  0.70628464  0.52696192     0.78200
O175        O  0.85872941  0.67009066  0.09729605    -0.60200
O176        O  0.85597885  0.63392288  0.05263171    -0.51100
C177        C  0.79828413  0.69220884  0.50411763     0.70900
O178        O  0.81958237  0.70097503  0.48228474    -0.46000
C179        C  0.86111513  0.64162640  0.43423812     0.75600
O180        O  0.86704528  0.70793404  0.55263868    -0.57800
O181        O  0.85192268  0.63094273  0.47428258    -0.47900
O182        O  0.88872091  0.68727991  0.49438375    -0.54300
C183        C  0.86038917  0.64443202  0.09544584     0.85800
O184        O  0.80155184  0.67165991  0.53087141    -0.56100
O185        O  0.86141165  0.66746848  0.43467818    -0.59400
In186      In  0.11481125  0.65935331  0.53053245     1.36900
C187        C  0.08641470  0.70421112  0.52789649     0.78200
O188        O  0.10223304  0.65876957  0.45096757    -0.60200
O189        O  0.10511258  0.62031720  0.48549605    -0.51100
C190        C  0.16675284  0.67585663  0.54019597     0.70900
O191        O  0.14824544  0.68273348  0.57067314    -0.46000
C192        C  0.09448294  0.63217125  0.10266189     0.75600
O193        O  0.10108073  0.69647179  0.49136880    -0.57800
O194        O  0.11803531  0.62905944  0.08406297    -0.47900
O195        O  0.08833261  0.69048047  0.56730670    -0.54300
C196        C  0.09832485  0.63324076  0.44738718     0.85800
O197        O  0.15909515  0.65910592  0.50657790    -0.56100
O198        O  0.08142414  0.65038297  0.08187378    -0.59400
In199      In  0.64101239  0.89832401  0.47918825     1.36900
C200        C  0.67461813  0.93969676  0.45356334     0.78200
O201        O  0.62546096  0.88667814  0.40260128    -0.60200
O202        O  0.60182723  0.91274212  0.44886630    -0.51100
C203        C  0.67239157  0.85572790  0.49091588     0.70900
O204        O  0.67914592  0.87988127  0.50344657    -0.46000
C205        C  0.61516169  0.90449265  0.06704684     0.75600
O206        O  0.66445834  0.92332275  0.42151054    -0.57800
O207        O  0.61567141  0.88205785  0.04265617    -0.47900
O208        O  0.66843252  0.93424442  0.49850188    -0.54300
C209        C  0.60457957  0.90085099  0.40675080     0.85800
O210        O  0.64904279  0.85290457  0.47294079    -0.56100
O211        O  0.63006655  0.92328787  0.04821264    -0.59400
In212      In  0.62559765  0.15168584  0.45081918     1.36900
C213        C  0.66833414  0.12098832  0.43647045     0.78200
O214        O  0.63031779  0.13493716  0.03007626    -0.60200
O215        O  0.59250811  0.14432188  0.99924854    -0.51100
C216        C  0.64376290  0.20396158  0.45576360     0.70900
O217        O  0.65551623  0.18560406  0.43088235    -0.46000
C218        C  0.59750641  0.13129223  0.37389330     0.75600
O219        O  0.65877219  0.12639586  0.47974744    -0.57800
O220        O  0.60781771  0.11692805  0.40666484    -0.47900
O221        O  0.65747748  0.13314818  0.40117312    -0.54300
C222        C  0.60492087  0.13522388  0.03619206     0.85800
O223        O  0.62153330  0.19614803  0.47579580    -0.56100
O224        O  0.59918473  0.15683138  0.38313093    -0.59400
C225        C  0.69979744  0.05937337  0.37593308     0.19400
C226        C  0.69072641  0.04875413  0.84798274    -0.18700
C227        C  0.68769025  0.02028855  0.85038173    -0.11000
C228        C  0.70049675  0.00201542  0.38147120     0.21600
C229        C  0.71707776  0.01850915  0.41279382    -0.20400
C230        C  0.71675011  0.04705180  0.40999818    -0.11200
C231        C  0.69362386  0.97295368  0.39273555    -0.15400
C232        C  0.69089897  0.96440809  0.44036928    -0.29200
C233        C  0.70302304  0.09274854  0.88955227    -0.03500
C234        C  0.68838231  0.09976591  0.42783355    -0.40000
H235        H  0.67811189  0.05962971  0.82279845     0.12800
H236        H  0.67309849  0.00974103  0.82663843     0.12400
H237        H  0.72895959  0.00947873  0.44143165     0.11800
H238        H  0.72834283  0.05937103  0.43657889     0.12100
H239        H  0.68555709  0.95999164  0.36262599     0.14800
H240        H  0.69789249  0.98041716  0.97536824     0.13600
H241        H  0.69638877  0.10389721  0.85730668     0.11300
H242        H  0.69554174  0.08980261  0.46094115     0.13300
C243        C  0.70721666  0.78669675  0.47932411     0.19400
C244        C  0.70073612  0.75892016  0.48833950    -0.18700
C245        C  0.72108709  0.73948524  0.48666725    -0.11000
C246        C  0.74809766  0.74763416  0.47487346     0.21600
C247        C  0.75423394  0.77520663  0.46434012    -0.20400
C248        C  0.73415368  0.79450989  0.46666362    -0.11200
C249        C  0.77079268  0.72853967  0.47257213    -0.15400
C250        C  0.77219632  0.70592938  0.50044379    -0.29200
C251        C  0.68578617  0.80733026  0.48104911    -0.03500
C252        C  0.69131246  0.83338316  0.49566532    -0.40000
H253        H  0.68001384  0.75235339  0.49721501     0.12800
H254        H  0.71563051  0.71823692  0.49387323     0.12400
H255        H  0.77481940  0.78195149  0.45458150     0.11800
H256        H  0.73974357  0.81550246  0.45749938     0.12100
H257        H  0.78866891  0.73520917  0.45070454     0.14800
H258        H  0.75516301  0.69904676  0.52414127     0.13600
H259        H  0.66549447  0.80118134  0.46947568     0.11300
H260        H  0.71115353  0.83907442  0.51001905     0.13300
C261        C  0.01664294  0.74072308  0.02639527     0.19400
C262        C  0.99927841  0.74764826  0.06681626    -0.18700
C263        C  0.97155745  0.75046184  0.05967955    -0.11000
C264        C  0.96237376  0.73181711  0.52102908     0.21600
C265        C  0.98211872  0.73750760  0.48362032    -0.20400
C266        C  0.00958214  0.73910576  0.49519040    -0.11200
C267        C  0.93475437  0.72301241  0.50582214    -0.15400
C268        C  0.91300159  0.72359534  0.53702699    -0.29200
C269        C  0.04380925  0.73043983  0.03767099    -0.03500
C270        C  0.06605853  0.72510706  0.52219506    -0.40000
H271        H  0.00687203  0.74917484  0.10466503     0.12800
H272        H  0.95880791  0.75462334  0.09217832     0.12400
H273        H  0.97638636  0.73909111  0.44474659     0.11800
H274        H  0.02400145  0.74204213  0.46454508     0.12100
H275        H  0.93283796  0.71314949  0.46908546     0.14800
H276        H  0.91906061  0.73509100  0.07994486     0.13600
H277        H  0.04699499  0.72445039  0.07613769     0.11300
H278        H  0.06474754  0.73381072  0.48524992     0.13300
C279        C  0.69670801  0.26337443  0.45480354     0.19400
C280        C  0.71475468  0.27496235  0.41893848    -0.18700
C281        C  0.73429083  0.29487079  0.43299371    -0.11000
C282        C  0.73647173  0.30336480  0.48357593     0.21600
C283        C  0.71814305  0.29207904  0.51936763    -0.20400
C284        C  0.69827161  0.27245822  0.50513516    -0.11200
C285        C  0.75968860  0.32117280  0.50050359    -0.15400
C286        C  0.77213646  0.34001915  0.47082018    -0.29200
C287        C  0.67941902  0.23923870  0.43993546    -0.03500
C288        C  0.65611975  0.23160659  0.46388894    -0.40000
H289        H  0.71432614  0.26790782  0.38016220     0.12800
H290        H  0.74861599  0.30237632  0.40457863     0.12400
H291        H  0.71971213  0.29788209  0.55863484     0.11800
H292        H  0.68525135  0.26333126  0.53405222     0.12100
H293        H  0.76772089  0.31747108  0.53727908     0.14800
H294        H  0.76360817  0.34469724  0.43494426     0.13600
H295        H  0.68706663  0.22636377  0.40941871     0.11300
H296        H  0.64725513  0.24475605  0.49267475     0.13300
C297        C  0.94118097  0.28367397  0.48134702     0.19400
C298        C  0.95920766  0.28068608  0.44017596    -0.18700
C299        C  0.98722532  0.28255183  0.44667179    -0.11000
C300        C  0.00308883  0.28497121  0.00363305     0.21600
C301        C  0.98502962  0.28774827  0.04479741    -0.20400
C302        C  0.95708322  0.28706181  0.03780413    -0.11200
C303        C  0.03139964  0.29575977  0.00954770    -0.15400
C304        C  0.04505878  0.30116051  0.46645147    -0.29200
C305        C  0.91303697  0.29160990  0.47102094    -0.03500
C306        C  0.89491105  0.29840288  0.50721327    -0.40000
H307        H  0.95164992  0.27935939  0.40233666     0.12800
H308        H  0.00014962  0.28235286  0.41334196     0.12400
H309        H  0.99253754  0.29326192  0.08168443     0.11800
H310        H  0.94418831  0.29229863  0.06965302     0.12100
H311        H  0.03648855  0.30438790  0.04629626     0.14800
H312        H  0.04232701  0.29241976  0.42915379     0.13600
H313        H  0.90926844  0.29764622  0.43278339     0.11300
H314        H  0.90116138  0.29199334  0.04891943     0.13300
C315        C  0.25028954  0.24021890  0.48223319     0.19400
C316        C  0.24651136  0.25966294  0.44502736    -0.18700
C317        C  0.22572207  0.27837781  0.45002258    -0.11000
C318        C  0.20809168  0.27784639  0.49236859     0.21600
C319        C  0.21808647  0.26200110  0.03342753    -0.20400
C320        C  0.23880686  0.24337393  0.02704333    -0.11200
C321        C  0.18383762  0.29500920  0.49683861    -0.15400
C322        C  0.18069731  0.31831456  0.47159557    -0.29200
C323        C  0.27072026  0.21889185  0.47302948    -0.03500
C324        C  0.28057893  0.20387816  0.50977730    -0.40000
H325        H  0.25929901  0.25995308  0.41138768     0.12800
H326        H  0.22288403  0.29234148  0.41964107     0.12400
H327        H  0.20783348  0.26370283  0.06968686     0.11800
H328        H  0.24373508  0.23099588  0.05863984     0.12100
H329        H  0.16760342  0.28794051  0.52226271     0.14800
H330        H  0.19696715  0.32691480  0.44805246     0.13600
H331        H  0.27707300  0.21470446  0.43437545     0.11300
H332        H  0.27530677  0.20817300  0.54880225     0.13300
C333        C  0.22773202  0.72285788  0.57493433     0.19400
C334        C  0.24025942  0.73176199  0.61929983    -0.18700
C335        C  0.26114917  0.75188565  0.61805654    -0.11000
C336        C  0.26709769  0.76534148  0.08117780     0.21600
C337        C  0.26102558  0.75021107  0.03709163    -0.20400
C338        C  0.24058968  0.72959873  0.03759884    -0.11200
C339        C  0.28460909  0.79086147  0.08084642    -0.15400
C340        C  0.30373846  0.79727024  0.53453096    -0.29200
C341        C  0.20267421  0.70513077  0.57831538    -0.03500
C342        C  0.19458194  0.68795244  0.54114769    -0.40000
H343        H  0.23327052  0.72374735  0.65521483     0.12800
H344        H  0.26986119  0.75898084  0.65300883     0.12400
H345        H  0.27061642  0.75528576  0.00132356     0.11800
H346        H  0.23517906  0.71980376  0.00224302     0.12100
H347        H  0.28275349  0.80456109  0.11318306     0.14800
H348        H  0.30561003  0.78484548  0.50061569     0.13600
H349        H  0.18977317  0.70737660  0.61169012     0.11300
H350        H  0.20784558  0.68432245  0.50880063     0.13300
C351        C  0.25403817  0.03506427  0.01922781     0.19400
C352        C  0.25664804  0.02107269  0.06431978    -0.18700
C353        C  0.25903044  0.99268141  0.06427087    -0.11000
C354        C  0.25300849  0.97032646  0.52344754     0.21600
C355        C  0.24602355  0.98223243  0.47810989    -0.20400
C356        C  0.24402059  0.01060110  0.47484181    -0.11200
C357        C  0.26286580  0.94186980  0.52116156    -0.15400
C358        C  0.27463981  0.92984089  0.55961550    -0.29200
C359        C  0.25990909  0.06515324  0.02011539    -0.03500
C360        C  0.26921840  0.06709306  0.47203882    -0.40000
H361        H  0.25904178  0.03234256  0.09947046     0.12800
H362        H  0.26299672  0.98337852  0.09967044     0.12400
H363        H  0.24412148  0.96982684  0.44425443     0.11800
H364        H  0.24018382  0.01929298  0.43861136     0.12100
H365        H  0.26463776  0.93231373  0.48411593     0.14800
H366        H  0.27188601  0.94095715  0.09194177     0.13600
H367        H  0.26470533  0.07434804  0.05650234     0.11300
H368        H  0.27192731  0.05435556  0.43861771     0.13300
C369        C  0.00673940  0.62896054  0.38158105     0.19400
C370        C  0.98852479  0.62529400  0.34221728    -0.18700
C371        C  0.96057409  0.62737779  0.35093512    -0.11000
C372        C  0.95018622  0.63300543  0.39955599     0.21600
C373        C  0.96836982  0.63713588  0.43879397    -0.20400
C374        C  0.99628491  0.63518732  0.43006487    -0.11200
C375        C  0.92067445  0.63104759  0.41190192    -0.15400
C376        C  0.90113414  0.63402666  0.37810780    -0.29200
C377        C  0.03590750  0.62304770  0.37217990    -0.03500
C378        C  0.05568593  0.63176175  0.40326297    -0.40000
H379        H  0.99591832  0.61994193  0.30487522     0.12800
H380        H  0.94713668  0.62313828  0.32014586     0.12400
H381        H  0.96087411  0.64096354  0.47678252     0.11800
H382        H  0.00928599  0.63714761  0.46207855     0.12100
H383        H  0.91469157  0.62520545  0.44991600     0.14800
H384        H  0.90655971  0.64109877  0.34061636     0.13600
H385        H  0.04094580  0.60945659  0.34085287     0.11300
H386        H  0.05055239  0.64631705  0.43300831     0.13300
C387        C  0.88302306  0.54637582  0.37832024     0.19400
C388        C  0.88668537  0.52838044  0.33734153    -0.18700
C389        C  0.88788088  0.50022419  0.34460621    -0.11000
C390        C  0.88548980  0.48937040  0.39322837     0.21600
C391        C  0.88323626  0.50739239  0.43452916    -0.20400
C392        C  0.88189413  0.53567361  0.42725101    -0.11200
C393        C  0.88622132  0.45935976  0.40095831    -0.15400
C394        C  0.87516139  0.44157755  0.36750482    -0.29200
C395        C  0.88152468  0.57611063  0.36820162    -0.03500
C396        C  0.87080921  0.59448599  0.40068020    -0.40000
H397        H  0.88836804  0.53610940  0.29942084     0.12800
H398        H  0.89092208  0.48698148  0.31206250     0.12400
H399        H  0.88211806  0.49954101  0.47233920     0.11800
H400        H  0.88033439  0.54895604  0.46005175     0.12100
H401        H  0.89676313  0.45181846  0.43299986     0.14800
H402        H  0.86361696  0.44991288  0.33735122     0.13600
H403        H  0.88942201  0.58332492  0.33208224     0.11300
H404        H  0.86202392  0.58734651  0.43601853     0.13300
C405        C  0.10110986  0.54374420  0.38716883     0.19400
C406        C  0.12126224  0.52586906  0.40077654    -0.18700
C407        C  0.11939922  0.49804842  0.38685394    -0.11000
C408        C  0.09764746  0.48791013  0.35802435     0.21600
C409        C  0.07808250  0.50595447  0.34298247    -0.20400
C410        C  0.07965268  0.53352265  0.35761050    -0.11200
C411        C  0.09477102  0.45875703  0.34238778    -0.15400
C412        C  0.09998689  0.43805976  0.37309875    -0.29200
C413        C  0.10390805  0.57341963  0.39990533    -0.03500
C414        C  0.08219252  0.58928607  0.40548978    -0.40000
H415        H  0.13836907  0.53343343  0.42227085     0.12800
H416        H  0.13516199  0.48462082  0.39779982     0.12400
H417        H  0.06138670  0.49862513  0.32018615     0.11800
H418        H  0.06441043  0.54693553  0.34445203     0.12100
H419        H  0.08536038  0.45404378  0.30664457     0.14800
H420        H  0.10778082  0.44284145  0.41018115     0.13600
H421        H  0.12417081  0.58283733  0.40055370     0.11300
H422        H  0.06214582  0.57938037  0.40753610     0.13300
C423        C  0.01396502  0.41459657  0.36237095     0.19400
C424        C  0.99513267  0.42008355  0.40118735    -0.18700
C425        C  0.96760715  0.42131597  0.39148988    -0.11000
C426        C  0.95813145  0.41689815  0.34258462     0.21600
C427        C  0.97680594  0.41189494  0.30339208    -0.20400
C428        C  0.00454300  0.41075899  0.31299529    -0.11200
C429        C  0.92876469  0.41777952  0.33277738    -0.15400
C430        C  0.91064281  0.40659033  0.36557906    -0.29200
C431        C  0.04308121  0.41426856  0.37551272    -0.03500
C432        C  0.06313527  0.40556845  0.34465918    -0.40000
H433        H  0.00174751  0.42352128  0.43933413     0.12800
H434        H  0.95371646  0.42597875  0.42232018     0.12400
H435        H  0.96980336  0.40830801  0.26559019     0.11800
H436        H  0.01827547  0.40714176  0.28158162     0.12100
H437        H  0.92203955  0.42829973  0.29989521     0.14800
H438        H  0.91848961  0.39509193  0.39646070     0.13600
H439        H  0.04850616  0.42192127  0.41261332     0.11300
H440        H  0.05839212  0.39737979  0.30770780     0.13300
C441        C  0.59102734  0.03996085  0.35021352     0.19400
C442        C  0.57705884  0.02260658  0.38427969    -0.18700
C443        C  0.58090203  0.99441797  0.38315959    -0.11000
C444        C  0.59886037  0.98273144  0.34772832     0.21600
C445        C  0.61362617  0.00004927  0.31474876    -0.20400
C446        C  0.60972872  0.02841416  0.31572762    -0.11200
C447        C  0.60279610  0.95263215  0.34617947    -0.15400
C448        C  0.58193896  0.93473015  0.35549879    -0.29200
C449        C  0.58517178  0.06970735  0.35285787    -0.03500
C450        C  0.59424573  0.08885175  0.31986121    -0.40000
H451        H  0.56290557  0.03087009  0.41187180     0.12800
H452        H  0.56996448  0.98181352  0.41048725     0.12400
H453        H  0.62781479  0.99152903  0.28755218     0.11800
H454        H  0.62139283  0.04096172  0.28946596     0.12100
H455        H  0.62303697  0.94522344  0.33900476     0.14800
H456        H  0.56184641  0.94299613  0.36036707     0.13600
H457        H  0.57191013  0.07636791  0.38362592     0.11300
H458        H  0.60699477  0.08309153  0.28789324     0.13300
C459        C  0.45074186  0.88280290  0.39150011     0.19400
C460        C  0.46848824  0.89710218  0.42389406    -0.18700
C461        C  0.49642695  0.89863426  0.41286655    -0.11000
C462        C  0.50690025  0.88660546  0.36843102     0.21600
C463        C  0.48913019  0.87206266  0.33645112    -0.20400
C464        C  0.46137841  0.86967324  0.34844332    -0.11200
C465        C  0.53531235  0.89236939  0.35122102    -0.15400
C466        C  0.55678221  0.89273204  0.38177448    -0.29200
C467        C  0.42097711  0.88219365  0.40073104    -0.03500
C468        C  0.40716981  0.90554187  0.40529418    -0.40000
H469        H  0.46064947  0.90739420  0.45723709     0.12800
H470        H  0.50961337  0.91046025  0.43763077     0.12400
H471        H  0.49669557  0.86295410  0.30168738     0.11800
H472        H  0.44800195  0.85860141  0.32289192     0.12100
H473        H  0.53854366  0.89761469  0.31195648     0.14800
H474        H  0.55363949  0.88626954  0.42045183     0.13600
H475        H  0.41022976  0.86252728  0.39765299     0.11300
H476        H  0.41897957  0.92477661  0.40638043     0.13300
C477        C  0.50860998  0.12977741  0.35094614     0.19400
C478        C  0.49121807  0.13073190  0.39335470    -0.18700
C479        C  0.46304101  0.12877543  0.38825223    -0.11000
C480        C  0.45176279  0.12640191  0.34021119     0.21600
C481        C  0.46916197  0.12652939  0.29788332    -0.20400
C482        C  0.49720381  0.12848502  0.30296876    -0.11200
C483        C  0.42225099  0.12227124  0.33210440    -0.15400
C484        C  0.40270956  0.12834165  0.36625942    -0.29200
C485        C  0.53843845  0.13003024  0.35780146    -0.03500
C486        C  0.55543773  0.11924498  0.32299128    -0.40000
H487        H  0.49950572  0.13238424  0.43054434     0.12800
H488        H  0.45041731  0.12833423  0.42194985     0.12400
H489        H  0.46095856  0.12495086  0.26058588     0.11800
H490        H  0.50971119  0.12908302  0.26910704     0.12100
H491        H  0.41615399  0.11383362  0.29587588     0.14800
H492        H  0.40831539  0.13780409  0.40177766     0.13600
H493        H  0.54624679  0.13829503  0.39284274     0.11300
H494        H  0.54709561  0.10960279  0.28950212     0.13300
C495        C  0.37400046  0.98466311  0.37159157     0.19400
C496        C  0.37318791  0.00016209  0.32772763    -0.18700
C497        C  0.37246494  0.02885568  0.33044355    -0.11000
C498        C  0.37286215  0.04263142  0.37739418     0.21600
C499        C  0.37353116  0.02703251  0.42112440    -0.20400
C500        C  0.37406651  0.99845251  0.41841255    -0.11200
C501        C  0.37463343  0.07305428  0.38290589    -0.15400
C502        C  0.36897665  0.09100141  0.34686888    -0.29200
C503        C  0.37731113  0.95451251  0.36760817    -0.03500
C504        C  0.36874949  0.93704599  0.40391032    -0.40000
H505        H  0.37353518  0.99002969  0.29112438     0.12800
H506        H  0.37258633  0.04000834  0.29578039     0.12400
H507        H  0.37420832  0.03707709  0.45781221     0.11800
H508        H  0.37564688  0.98737274  0.45295305     0.12100
H509        H  0.38106234  0.08133473  0.41912952     0.14800
H510        H  0.36163529  0.08335062  0.31101724     0.13600
H511        H  0.38788470  0.94648679  0.33451227     0.11300
H512        H  0.35699907  0.94501243  0.43565335     0.13300
C513        C  0.76127519  0.53521646  0.18738650     0.19400
C514        C  0.74722964  0.51821699  0.22213940    -0.18700
C515        C  0.74903066  0.48971283  0.21825162    -0.11000
C516        C  0.76496119  0.47788779  0.17963917     0.21600
C517        C  0.77605893  0.49474621  0.14168241    -0.20400
C518        C  0.77421278  0.52317441  0.14550691    -0.11200
C519        C  0.77392530  0.44922247  0.18136591    -0.15400
C520        C  0.77799467  0.43672350  0.22507984    -0.29200
C521        C  0.76642538  0.56493509  0.19695924    -0.03500
C522        C  0.76985758  0.57513157  0.24368032    -0.40000
H523        H  0.73604576  0.52689339  0.25370063     0.12800
H524        H  0.73914954  0.47716999  0.24687213     0.12400
H525        H  0.78813675  0.48613379  0.11117698     0.11800
H526        H  0.78489640  0.53581456  0.11789609     0.12100
H527        H  0.78280516  0.44064811  0.14705923     0.14800
H528        H  0.77074116  0.44557164  0.26031615     0.13600
H529        H  0.77309984  0.57736001  0.16521880     0.11300
H530        H  0.76484942  0.56264064  0.27611351     0.13300
C531        C  0.76199812  0.75677368  0.28358228     0.19400
C532        C  0.76064419  0.77529756  0.24400871    -0.18700
C533        C  0.74027406  0.79457536  0.24358051    -0.11000
C534        C  0.72080964  0.79586221  0.28304845     0.21600
C535        C  0.72338394  0.77865945  0.32433234    -0.20400
C536        C  0.74368431  0.75932200  0.32466244    -0.11200
C537        C  0.69720412  0.81417397  0.28220085    -0.15400
C538        C  0.68718678  0.82405920  0.23971514    -0.29200
C539        C  0.78189836  0.73445105  0.27950052    -0.03500
C540        C  0.77783393  0.71013748  0.30214362    -0.40000
H541        H  0.77481569  0.77423064  0.21244500     0.12800
H542        H  0.73978685  0.80819612  0.21200688     0.12400
H543        H  0.70913647  0.77959711  0.35580743     0.11800
H544        H  0.74471259  0.74625335  0.35695656     0.12100
H545        H  0.68623648  0.81772923  0.31746170     0.14800
H546        H  0.69680155  0.81967332  0.20358455     0.13600
H547        H  0.79887469  0.73698059  0.25306317     0.11300
H548        H  0.76012545  0.70654752  0.32632130     0.13300
C549        C  0.44727098  0.78733074  0.24883380     0.19400
C550        C  0.46771560  0.78412323  0.28373722    -0.18700
C551        C  0.49499795  0.78679747  0.26911065    -0.11000
C552        C  0.50238237  0.79269119  0.21900927     0.21600
C553        C  0.48206545  0.79336771  0.18323173    -0.20400
C554        C  0.45474674  0.79059290  0.19781798    -0.11200
C555        C  0.52977966  0.80388872  0.20533700    -0.15400
C556        C  0.55174863  0.80043839  0.23301926    -0.29200
C557        C  0.41971278  0.79334334  0.26876798    -0.03500
C558        C  0.39846966  0.79793509  0.23979340    -0.40000
H559        H  0.46259780  0.78183964  0.32323362     0.12800
H560        H  0.50996713  0.78671659  0.29812042     0.12400
H561        H  0.48725036  0.79808202  0.14449747     0.11800
H562        H  0.43982986  0.79343009  0.16949639     0.12100
H563        H  0.53107563  0.81849851  0.17489876     0.14800
H564        H  0.55170418  0.78499922  0.26185509     0.13600
H565        H  0.41831331  0.79922726  0.30827264     0.11300
H566        H  0.39830082  0.79139484  0.20074213     0.13300
C567        C  0.20612309  0.74491665  0.28177909     0.19400
C568        C  0.22743762  0.74961261  0.31501984    -0.18700
C569        C  0.24388831  0.77337487  0.31205991    -0.11000
C570        C  0.23955263  0.79305038  0.27535377     0.21600
C571        C  0.21800888  0.78860786  0.24242829    -0.20400
C572        C  0.20125429  0.76488357  0.24582223    -0.11200
C573        C  0.25938780  0.81622135  0.26687179    -0.15400
C574        C  0.27443018  0.82712874  0.30405914    -0.29200
C575        C  0.19113099  0.71800393  0.28362946    -0.03500
C576        C  0.16641784  0.71290332  0.26470445    -0.40000
H577        H  0.23183164  0.73446768  0.34268776     0.12800
H578        H  0.26086823  0.77549923  0.33696930     0.12400
H579        H  0.21461377  0.80315460  0.21319603     0.11800
H580        H  0.18542403  0.76171141  0.21869201     0.12100
H581        H  0.26340512  0.82262449  0.22848416     0.14800
H582        H  0.26990732  0.82151437  0.34266720     0.13600
H583        H  0.20091049  0.70152835  0.30243589     0.11300
H584        H  0.15534633  0.72909157  0.24791156     0.13300
C585        C  0.21875316  0.47997074  0.26412772     0.19400
C586        C  0.22750405  0.50032151  0.23025985    -0.18700
C587        C  0.22309511  0.52793292  0.24122587    -0.11000
C588        C  0.20943616  0.53550889  0.28608902     0.21600
C589        C  0.20378070  0.51553843  0.32241710    -0.20400
C590        C  0.20831442  0.48800527  0.31163379    -0.11200
C591        C  0.19717531  0.56262754  0.29366384    -0.15400
C592        C  0.19020974  0.57823721  0.25525478    -0.29200
C593        C  0.21416005  0.45164491  0.24446661    -0.03500
C594        C  0.20684123  0.43059680  0.27420514    -0.40000
H595        H  0.23576067  0.49470626  0.19363635     0.12800
H596        H  0.22890735  0.54294114  0.21318015     0.12400
H597        H  0.19352301  0.52086261  0.35749558     0.11800
H598        H  0.20099508  0.47311084  0.33879979     0.12100
H599        H  0.18959656  0.56773892  0.33123636     0.14800
H600        H  0.19666253  0.57347498  0.21699316     0.13600
H601        H  0.21041346  0.44967612  0.20447731     0.11300
H602        H  0.21187147  0.43104128  0.31363496     0.13300
C603        C  0.77705012  0.26947292  0.21327706     0.19400
C604        C  0.76537093  0.25614450  0.17163322    -0.18700
C605        C  0.74439161  0.23645016  0.17806509    -0.11000
C606        C  0.73448859  0.22979028  0.22656352     0.21600
C607        C  0.74701948  0.24223191  0.26827405    -0.20400
C608        C  0.76813211  0.26180039  0.26182549    -0.11200
C609        C  0.70905806  0.21307945  0.23486631    -0.15400
C610        C  0.69816045  0.19607850  0.19998958    -0.29200
C611        C  0.79516859  0.29396326  0.20474240    -0.03500
C612        C  0.81244702  0.30426187  0.23900036    -0.40000
H613        H  0.77162155  0.26193765  0.13389494     0.12800
H614        H  0.73496564  0.22794578  0.14479621     0.12400
H615        H  0.73961977  0.23772437  0.30596690     0.11800
H616        H  0.77607952  0.27210144  0.29492512     0.12100
H617        H  0.69803435  0.21615682  0.27025526     0.14800
H618        H  0.70913843  0.19153204  0.16525375     0.13600
H619        H  0.79278688  0.30500712  0.17014735     0.11300
H620        H  0.81632146  0.29299004  0.27264516     0.13300
C621        C  0.21284336  0.27718725  0.21932735     0.19400
C622        C  0.23154582  0.26969677  0.18151889    -0.18700
C623        C  0.25173485  0.25133574  0.19119861    -0.11000
C624        C  0.25395969  0.24040718  0.23937633     0.21600
C625        C  0.23550243  0.24801351  0.27748218    -0.20400
C626        C  0.21492633  0.26603517  0.26754073    -0.11200
C627        C  0.27668292  0.22272629  0.25097430    -0.15400
C628        C  0.28587841  0.20423125  0.21744473    -0.29200
C629        C  0.19380571  0.29911786  0.20863772    -0.03500
C630        C  0.17165915  0.30435631  0.23703184    -0.40000
H631        H  0.23098915  0.27866010  0.14466737     0.12800
H632        H  0.26625295  0.24656373  0.16148539     0.12400
H633        H  0.23719589  0.24021971  0.31510201     0.11800
H634        H  0.20160927  0.27204847  0.29829088     0.12100
H635        H  0.28634823  0.22542977  0.28705672     0.14800
H636        H  0.27521049  0.20050067  0.18262950     0.13600
H637        H  0.19937330  0.31274508  0.17788253     0.11300
H638        H  0.16508799  0.29080462  0.26715396     0.13300
C639        C  0.46682529  0.24256114  0.21940671     0.19400
C640        C  0.48426543  0.25103909  0.25785117    -0.18700
C641        C  0.51219160  0.25382565  0.24856966    -0.11000
C642        C  0.52319518  0.24736142  0.20067925     0.21600
C643        C  0.50540627  0.24237106  0.16096260    -0.20400
C644        C  0.47745383  0.23987829  0.17013399    -0.11200
C645        C  0.55207230  0.24027169  0.19243146    -0.15400
C646        C  0.56775983  0.23265493  0.23003876    -0.29200
C647        C  0.43952271  0.23119659  0.23350687    -0.03500
C648        C  0.41939477  0.22713171  0.20091672    -0.40000
H649        H  0.47648037  0.25361816  0.29604125     0.12800
H650        H  0.52497629  0.25915329  0.27977133     0.12400
H651        H  0.51325161  0.23769256  0.12348151     0.11800
H652        H  0.46474985  0.23320687  0.13949660     0.12100
H653        H  0.55846073  0.23521298  0.15406660     0.14800
H654        H  0.56199019  0.23666764  0.26891413     0.13600
H655        H  0.43696889  0.22298781  0.27110623     0.11300
H656        H  0.42047948  0.23640527  0.16417281     0.13300
C657        C  0.59069261  0.98868800  0.10335012     0.19400
C658        C  0.58950186  0.00536579  0.06121408    -0.18700
C659        C  0.58881446  0.03375247  0.06662619    -0.11000
C660        C  0.58944329  0.04629773  0.11459089     0.21600
C661        C  0.59042694  0.02968193  0.15698251    -0.20400
C662        C  0.59120875  0.00107350  0.15152691    -0.11200
C663        C  0.58736875  0.07648222  0.12064363    -0.15400
C664        C  0.59714582  0.09367105  0.08503481    -0.29200
C665        C  0.58983844  0.95858518  0.09469352    -0.03500
C666        C  0.59808034  0.93992599  0.12730055    -0.40000
H667        H  0.58873649  0.99635120  0.02372872     0.12800
H668        H  0.58690865  0.04568615  0.03315011     0.12400
H669        H  0.59046263  0.03885504  0.19436543     0.11800
H670        H  0.59144428  0.98886949  0.18495750     0.12100
H671        H  0.57684851  0.08462569  0.15367751     0.14800
H672        H  0.60885254  0.08511033  0.05376807     0.13600
H673        H  0.58291432  0.95122791  0.05822337     0.11300
H674        H  0.60578264  0.94673852  0.16336380     0.13300
C675        C  0.51851586  0.89789600  0.12743925     0.19400
C676        C  0.50121980  0.89436184  0.16945806    -0.18700
C677        C  0.47318484  0.89399684  0.16468504    -0.11000
C678        C  0.46154843  0.89695259  0.11733333     0.21600
C679        C  0.47882323  0.89944453  0.07486002    -0.20400
C680        C  0.50707893  0.89982072  0.07968378    -0.11200
C681        C  0.43194132  0.90110376  0.11278116    -0.15400
C682        C  0.41386872  0.89271126  0.14849647    -0.29200
C683        C  0.54788825  0.90262818  0.13650870    -0.03500
C684        C  0.56781205  0.90097695  0.10122581    -0.40000
H685        H  0.50945413  0.89306287  0.20671578     0.12800
H686        H  0.46093573  0.89308473  0.19885184     0.12400
H687        H  0.47043493  0.90213922  0.03809540     0.11800
H688        H  0.51969032  0.90307903  0.04643362     0.12100
H689        H  0.42527605  0.91367365  0.08239092     0.14800
H690        H  0.42085273  0.87844454  0.17569691     0.13600
H691        H  0.55352460  0.90846241  0.17457962     0.11300
H692        H  0.56302762  0.89421647  0.06329445     0.13300
C693        C  0.51271790  0.11368420  0.07658381     0.19400
C694        C  0.49339283  0.10330436  0.04275889    -0.18700
C695        C  0.46564761  0.10363007  0.05519603    -0.11000
C696        C  0.45679197  0.11369369  0.10238701     0.21600
C697        C  0.47605513  0.12330049  0.13671315    -0.20400
C698        C  0.50366145  0.12333611  0.12412356    -0.11200
C699        C  0.42780705  0.11269337  0.11825484    -0.15400
C700        C  0.40767537  0.11751961  0.08674872    -0.29200
C701        C  0.54216179  0.11244304  0.06309195    -0.03500
C702        C  0.56093705  0.12873553  0.08577265    -0.40000
H703        H  0.49979218  0.09466607  0.00692597     0.12800
H704        H  0.45122115  0.09521233  0.02854608     0.12400
H705        H  0.46970544  0.13076932  0.17343804     0.11800
H706        H  0.51774824  0.13014950  0.15260457     0.12100
H707        H  0.42286680  0.10868689  0.15748162     0.14800
H708        H  0.41283282  0.12276632  0.04809578     0.13600
H709        H  0.54862882  0.09696391  0.03602693     0.11300
H710        H  0.55390258  0.14487108  0.11088676     0.13300
C711        C  0.36833754  0.98020171  0.14258052     0.19400
C712        C  0.35216017  0.00023191  0.16522905    -0.18700
C713        C  0.35416382  0.02747173  0.14902245    -0.11000
C714        C  0.37210688  0.03502136  0.10915475     0.21600
C715        C  0.38744277  0.01468076  0.08542765    -0.20400
C716        C  0.38572518  0.98767152  0.10204873    -0.11200
C717        C  0.37549807  0.06367096  0.09093217    -0.15400
C718        C  0.37107400  0.08593178  0.12021940    -0.29200
C719        C  0.36554310  0.95109611  0.15821527    -0.03500
C720        C  0.38711459  0.93487407  0.15727880    -0.40000
H721        H  0.33811193  0.99482060  0.19561782     0.12800
H722        H  0.34130781  0.04236410  0.16723373     0.12400
H723        H  0.40104427  0.01975868  0.05418456     0.11800
H724        H  0.39765645  0.97245913  0.08237366     0.12100
H725        H  0.38400005  0.06670519  0.05332299     0.14800
H726        H  0.36395269  0.08299299  0.15872321     0.13600
H727        H  0.34532862  0.94232570  0.16533371     0.11300
H728        H  0.40708137  0.94479990  0.15306165     0.13300
C729        C  0.00474624  0.62496588  0.14255132     0.19400
C730        C  0.98709819  0.63262713  0.10529369    -0.18700
C731        C  0.95916569  0.63292018  0.11491377    -0.11000
C732        C  0.94805858  0.62542482  0.16222883     0.21600
C733        C  0.96578400  0.61774472  0.19957669    -0.20400
C734        C  0.99388026  0.61774884  0.19003640    -0.11200
C735        C  0.91808952  0.62261778  0.17126605    -0.15400
C736        C  0.90046582  0.63643505  0.14414345    -0.29200
C737        C  0.03371570  0.62134126  0.12851104    -0.03500
C738        C  0.05415663  0.62391958  0.16110612    -0.40000
H739        H  0.99488696  0.63763835  0.06811727     0.12800
H740        H  0.94633801  0.63770181  0.08406974     0.12400
H741        H  0.95781800  0.61097401  0.23551249     0.11800
H742        H  0.00691442  0.61062650  0.21887728     0.12100
H743        H  0.91039596  0.60727606  0.19750380     0.14800
H744        H  0.90868162  0.65247507  0.11980382     0.13600
H745        H  0.03840308  0.61558110  0.08974833     0.11300
H746        H  0.04970899  0.63083748  0.19936671     0.13300
C747        C  0.88087973  0.55136081  0.11162747     0.19400
C748        C  0.89074140  0.53409808  0.07318849    -0.18700
C749        C  0.89239867  0.50586345  0.08082888    -0.11000
C750        C  0.88461841  0.49451681  0.12744284     0.21600
C751        C  0.87511878  0.51176074  0.16599942    -0.20400
C752        C  0.87319841  0.53980393  0.15827699    -0.11200
C753        C  0.88805853  0.46521067  0.13837911    -0.15400
C754        C  0.88404863  0.44506361  0.10396625    -0.29200
C755        C  0.88134577  0.58157490  0.10445695    -0.03500
C756        C  0.86534220  0.59792649  0.13246585    -0.40000
H757        H  0.89763211  0.54254360  0.03764797     0.12800
H758        H  0.90074713  0.49312183  0.05096343     0.12400
H759        H  0.86954121  0.50355903  0.20246962     0.11800
H760        H  0.86679986  0.55242060  0.18990764     0.12100
H761        H  0.89263979  0.46016386  0.17656711     0.14800
H762        H  0.87728857  0.45071080  0.06713135     0.13600
H763        H  0.89657087  0.59064454  0.07911855     0.11300
H764        H  0.84932638  0.58826037  0.15538272     0.13300
C765        C  0.09771524  0.48433353  0.08281519     0.19400
C766        C  0.07617375  0.50121026  0.07258952    -0.18700
C767        C  0.07815690  0.52941918  0.08285683    -0.11000
C768        C  0.10185539  0.54137176  0.10354168     0.21600
C769        C  0.12411384  0.52482634  0.11018158    -0.20400
C770        C  0.12209761  0.49658761  0.10006867    -0.11200
C771        C  0.10394134  0.57092641  0.11832945    -0.15400
C772        C  0.08215676  0.58516041  0.13327155    -0.32400
C773        C  0.09354210  0.45402928  0.07798889    -0.03500
C774        C  0.10517238  0.43680952  0.10940311    -0.40000
H775        H  0.05738293  0.49240437  0.05835352     0.12800
H776        H  0.06102492  0.54171819  0.07482791     0.12400
H777        H  0.14285162  0.53362950  0.12470422     0.11800
H778        H  0.13952257  0.48439249  0.10643670     0.12100
H779        H  0.12393462  0.58089462  0.11892977     0.14800
H780        H  0.06262539  0.57427608  0.13586464     0.13600
H781        H  0.07811620  0.44594167  0.05283546     0.11300
H782        H  0.11912641  0.44549222  0.13677938     0.13300
C783        C  0.96415099  0.41747914  0.15559093     0.19400
C784        C  0.97745221  0.39548839  0.13219186    -0.18700
C785        C  0.00573788  0.39434541  0.13263870    -0.11000
C786        C  0.02146042  0.41527777  0.15629295     0.21600
C787        C  0.00802362  0.43679493  0.18077140    -0.20400
C788        C  0.97972550  0.43790839  0.18035934    -0.11200
C789        C  0.05174552  0.41571381  0.15559813    -0.15400
C790        C  0.06659202  0.40243877  0.12030588    -0.29200
C791        C  0.93414138  0.41952681  0.15557634    -0.03500
C792        C  0.91887795  0.41011585  0.11719831    -0.40000
H793        H  0.96607078  0.37884901  0.11428645     0.12800
H794        H  0.01500812  0.37676577  0.11499846     0.12400
H795        H  0.01950045  0.45305241  0.19972568     0.11800
H796        H  0.96996100  0.45489083  0.19919167     0.12100
H797        H  0.06223270  0.42928812  0.18209099     0.14800
H798        H  0.05609773  0.39003750  0.09212898     0.13600
H799        H  0.92467777  0.43025849  0.18690178     0.11300
H800        H  0.92911798  0.39993410  0.08601580     0.13300
C801        C  0.09657687  0.40129298  0.61832386    -0.01800
C802        C  0.88782861  0.41267173  0.60870641    -0.01800
C803        C  0.08137733  0.61215843  0.64783970    -0.01800
C804        C  0.86857188  0.62744222  0.64013410    -0.01800
C805        C  0.37360912  0.11269386  0.59997814    -0.01800
C806        C  0.38391513  0.90251576  0.65328312    -0.01800
C807        C  0.58745291  0.12540341  0.58405159    -0.01800
C808        C  0.59564550  0.91047824  0.61167572    -0.01800
In809      In  0.35990426  0.16302903  0.72707810     1.36900
C810        C  0.39590248  0.20448592  0.71615348     0.78200
O811        O  0.35235479  0.15170423  0.80962695    -0.60200
O812        O  0.38139537  0.13009181  0.76768126    -0.51100
C813        C  0.31091080  0.18444869  0.72685579     0.70900
O814        O  0.31514168  0.16042082  0.71136605    -0.46000
C815        C  0.36810587  0.13174528  0.64465652     0.75600
O816        O  0.37895397  0.19795460  0.68304164    -0.57800
O817        O  0.34600228  0.13112523  0.66964151    -0.47900
O818        O  0.39334345  0.19090186  0.75597876    -0.54300
C819        C  0.37009622  0.13375995  0.81002265     0.85800
O820        O  0.33153927  0.19720632  0.74341551    -0.56100
O821        O  0.38557546  0.14870376  0.66151356    -0.59400
In822      In  0.61821196  0.16998281  0.70683001     1.36900
C823        C  0.58942282  0.21442194  0.72323947     0.78200
O824        O  0.59641226  0.16635634  0.63460907    -0.60200
O825        O  0.61391182  0.13041271  0.66131600    -0.51100
C826        C  0.66944206  0.18886747  0.69305935     0.70900
O827        O  0.65629949  0.17656697  0.65921105    -0.46000
C828        C  0.60142318  0.13729744  0.78187853     0.75600
O829        O  0.60201432  0.20329486  0.75750898    -0.57800
O830        O  0.62618154  0.13973708  0.76865572    -0.47900
O831        O  0.59359010  0.20436506  0.67999624    -0.54300
C832        C  0.59989818  0.14105352  0.62806166     0.85800
O833        O  0.65707605  0.19006106  0.73485415    -0.56100
O834        O  0.58592475  0.15089393  0.75573739    -0.59400
In835      In  0.13088668  0.63909631  0.76472667     1.36900
C836        C  0.17381568  0.60936790  0.74530651     0.78200
O837        O  0.12861371  0.62564898  0.84417377    -0.60200
O838        O  0.09263269  0.63962231  0.81340851    -0.51100
C839        C  0.15022833  0.69090585  0.76413897     0.70900
O840        O  0.13612712  0.68057470  0.72959270    -0.46000
C841        C  0.09831238  0.62064638  0.69239503     0.75600
O842        O  0.16789778  0.62893160  0.71779328    -0.57800
O843        O  0.09899091  0.64507859  0.70873553    -0.47900
O844        O  0.15826899  0.60574081  0.78296297    -0.54300
C845        C  0.10368614  0.62927222  0.85052556     0.85800
O846        O  0.15372144  0.67509417  0.80008110    -0.56100
O847        O  0.11350316  0.60494825  0.71498931    -0.59400
In848      In  0.14343960  0.38128625  0.74015747     1.36900
C849        C  0.18574900  0.41661554  0.74152920     0.78200
O850        O  0.13806652  0.38917224  0.65849010    -0.60200
O851        O  0.10239356  0.38268906  0.70285438    -0.51100
C852        C  0.16321042  0.33134455  0.74824547     0.70900
O853        O  0.16167954  0.34285959  0.70647397    -0.46000
C854        C  0.11358475  0.39903655  0.81766875     0.75600
O855        O  0.18306883  0.39737853  0.77235168    -0.57800
O856        O  0.11025114  0.37535861  0.79836667    -0.47900
O857        O  0.16757326  0.41687363  0.70927203    -0.54300
C858        C  0.11255646  0.38963134  0.66079163     0.85800
O859        O  0.15334938  0.34459642  0.78461700    -0.56100
O860        O  0.13200573  0.41363463  0.79669218    -0.59400
In861      In  0.61656173  0.86355808  0.73333296     1.36900
C862        C  0.57836920  0.82411037  0.74108966     0.78200
O863        O  0.60343872  0.86506691  0.81462449    -0.60200
O864        O  0.60844482  0.90266542  0.77646028    -0.51100
C865        C  0.66739330  0.84626428  0.72413884     0.70900
O866        O  0.65008181  0.84273371  0.69074537    -0.46000
C867        C  0.60575963  0.89364981  0.65439290     0.75600
O868        O  0.60136271  0.82198993  0.75973417    -0.57800
O869        O  0.61473590  0.90400226  0.69482763    -0.47900
O870        O  0.57553244  0.84560694  0.71658791    -0.54300
C871        C  0.60117575  0.89068262  0.81646998     0.85800
O872        O  0.65943844  0.86026253  0.76145792    -0.56100
O873        O  0.60422426  0.86775330  0.65345714    -0.59400
In874      In  0.35069914  0.86316745  0.77870434     1.36900
C875        C  0.38383288  0.82262565  0.75917198     0.78200
O876        O  0.34734352  0.87760452  0.69924813    -0.60200
O877        O  0.37928673  0.89435960  0.74291015    -0.51100
C878        C  0.29905568  0.84521796  0.78940223     0.70900
O879        O  0.31823619  0.83044118  0.77565565    -0.46000
C880        C  0.36666782  0.88849415  0.86208107     0.75600
O881        O  0.37032043  0.83338998  0.72583626    -0.57800
O882        O  0.35526420  0.90099102  0.82755358    -0.47900
O883        O  0.37904530  0.83127215  0.80331848    -0.54300
C884        C  0.36921887  0.89182752  0.70004829     0.85800
O885        O  0.30594839  0.86995180  0.79766849    -0.56100
O886        O  0.36779907  0.86287183  0.85518695    -0.59400
In887      In  0.84486610  0.38704265  0.73838517     1.36900
C888        C  0.80650750  0.42360634  0.75099476     0.78200
O889        O  0.85172001  0.38365758  0.82111148    -0.60200
O890        O  0.87898768  0.40900059  0.77836807    -0.51100
C891        C  0.82578271  0.33528802  0.72597434     0.70900
O892        O  0.81186886  0.35602766  0.72091317    -0.46000
C893        C  0.87284272  0.40293879  0.65615774     0.75600
O894        O  0.81571828  0.41104606  0.78739774    -0.57800
O895        O  0.88373707  0.39069870  0.69159217    -0.47900
O896        O  0.81621089  0.41674223  0.70874103    -0.54300
C897        C  0.87166907  0.40058465  0.82134991     0.85800
O898        O  0.85006020  0.34072725  0.73687213    -0.56100
O899        O  0.84778050  0.40587782  0.66258112    -0.59400
In900      In  0.82688190  0.64833481  0.77315449     1.36900
C901        C  0.78826539  0.60933906  0.77551507     0.78200
O902        O  0.82898627  0.63461762  0.69307797    -0.60200
O903        O  0.86603243  0.64757834  0.72577104    -0.51100
C904        C  0.80160414  0.69588699  0.78453325     0.70900
O905        O  0.81804865  0.69155879  0.74861186    -0.46000
C906        C  0.85992080  0.63569961  0.84635591     0.75600
O907        O  0.79975799  0.61818219  0.81451353    -0.57800
O908        O  0.85882517  0.65985853  0.83007363    -0.47900
O909        O  0.79513010  0.62181479  0.73590027    -0.54300
C910        C  0.85432083  0.63736681  0.68776591     0.85800
O911        O  0.79907710  0.67659284  0.81494313    -0.56100
O912        O  0.84526110  0.61828696  0.82326375    -0.59400
C913        C  0.37810328  0.11840752  0.85687405    -0.01800
C914        C  0.37923062  0.90259700  0.90761319    -0.01800
C915        C  0.59082425  0.12005749  0.82567162    -0.01800
C916        C  0.58991195  0.90530370  0.86284227    -0.01800
C917        C  0.09645024  0.40898084  0.86172255    -0.01800
C918        C  0.88368269  0.41248936  0.86924181    -0.01800
C919        C  0.08866548  0.62023654  0.89800548    -0.01800
C920        C  0.87687385  0.62823681  0.89051878    -0.01800
In921      In  0.33588509  0.87767222  0.03689941     1.36900
C922        C  0.29550765  0.91218485  0.04710560     0.78200
O923        O  0.35895351  0.90888675  0.57693167    -0.60200
O924        O  0.36451376  0.86748242  0.59634776    -0.51100
C925        C  0.31413889  0.82648424  0.04105179     0.70900
O926        O  0.33166104  0.83363543  0.00825775    -0.46000
C927        C  0.36411155  0.89116849  0.95346943     0.75600
O928        O  0.30708350  0.90237849  0.08396547    -0.57800
O929        O  0.37526130  0.88097824  0.99075835    -0.47900
O930        O  0.30330485  0.90294531  0.00486177    -0.54300
C931        C  0.36904222  0.89258096  0.60688951     0.85800
O932        O  0.30807316  0.84526589  0.07167712    -0.56100
O933        O  0.33867736  0.89237551  0.95803809    -0.59400
In934      In  0.32885782  0.13688028  0.98380323     1.36900
C935        C  0.28591267  0.10299020  0.98165807     0.78200
O936        O  0.34421872  0.10901634  0.92322265    -0.60200
O937        O  0.36036260  0.14959768  0.92318862    -0.51100
C938        C  0.30387257  0.18428001  0.99708787     0.70900
O939        O  0.30680641  0.17289339  0.95462468    -0.46000
C940        C  0.35555697  0.11996069  0.55716077     0.75600
O941        O  0.29496046  0.11504445  0.94300390    -0.57800
O942        O  0.35667182  0.14324230  0.53700295    -0.47900
O943        O  0.29732301  0.11021533  0.02182069    -0.54300
C944        C  0.36017686  0.12613622  0.90221256     0.85800
O945        O  0.31510374  0.17238997  0.03204984    -0.56100
O946        O  0.33840822  0.10331477  0.53814141    -0.59400
In947      In  0.85602722  0.36844311  0.99393803     1.36900
C948        C  0.88222291  0.32217967  0.00234613     0.78200
O949        O  0.87446196  0.37180040  0.91793703    -0.60200
O950        O  0.85949327  0.40839837  0.95135808    -0.51100
C951        C  0.80444462  0.35156804  0.98293431     0.70900
O952        O  0.81789885  0.36436548  0.94974860    -0.46000
C953        C  0.87468682  0.39726840  0.56493210     0.75600
O954        O  0.86587598  0.33051726  0.03577855    -0.57800
O955        O  0.84952623  0.39763549  0.55653699    -0.47900
O956        O  0.88363877  0.33644322  0.96328748    -0.54300
C957        C  0.87155193  0.39729070  0.91416223     0.85800
O958        O  0.81662332  0.34902507  0.02346221    -0.56100
O959        O  0.88775402  0.38279217  0.53399794    -0.59400
In960      In  0.11080097  0.35907274  0.98334698     1.36900
C961        C  0.07164188  0.32057648  0.97587219     0.78200
O962        O  0.11664523  0.36555045  0.56454358    -0.60200
O963        O  0.09425668  0.39468179  0.52762171    -0.51100
C964        C  0.15759817  0.33314015  0.97777809     0.70900
O965        O  0.15220441  0.35208350  0.94882297    -0.46000
C966        C  0.10130279  0.39084131  0.90600809     0.75600
O967        O  0.09061931  0.32295524  0.94348767    -0.57800
O968        O  0.12419913  0.38998710  0.92594662    -0.47900
O969        O  0.07268480  0.33796566  0.01132902    -0.54300
C970        C  0.10345866  0.38710076  0.56856300     0.85800
O971        O  0.13962437  0.32819644  0.01090347    -0.56100
O972        O  0.08310310  0.37556367  0.92626949    -0.59400
In973      In  0.85246512  0.67526116  0.01528405     1.36900
C974        C  0.89007833  0.71453643  0.03044692     0.78200
O975        O  0.85846544  0.66837688  0.59526064    -0.60200
O976        O  0.84843198  0.63106359  0.55704553    -0.51100
C977        C  0.80510223  0.69854064  0.00129413     0.70900
O978        O  0.82677668  0.70575736  0.97884805    -0.46000
C979        C  0.86782731  0.64504116  0.93598622     0.75600
O980        O  0.87487029  0.70526836  0.06524640    -0.57800
O981        O  0.84392742  0.64368815  0.95417228    -0.47900
O982        O  0.88483805  0.70504652  0.98725526    -0.54300
C983        C  0.85738949  0.64255327  0.59641863     0.85800
O984        O  0.80736973  0.67896473  0.03083284    -0.56100
O985        O  0.88359480  0.66144621  0.95912001    -0.59400
In986      In  0.11422868  0.66155499  0.02593028     1.36900
C987        C  0.08331279  0.70409111  0.01205672     0.78200
O988        O  0.11661562  0.65414688  0.94263581    -0.60200
O989        O  0.09539051  0.62465659  0.98761191    -0.51100
C990        C  0.16555019  0.67772882  0.04115113     0.70900
O991        O  0.14560094  0.68958481  0.06087767    -0.46000
C992        C  0.09313698  0.62830250  0.60363518     0.75600
O993        O  0.09691671  0.69325216  0.97695521    -0.57800
O994        O  0.11729863  0.62601434  0.58746576    -0.47900
O995        O  0.08728141  0.69470334  0.05494892    -0.54300
C996        C  0.10174034  0.63265069  0.94398978     0.85800
O997        O  0.15936871  0.65701571  0.01454648    -0.56100
O998        O  0.08020597  0.64616832  0.58159364    -0.59400
In999      In  0.64362953  0.89944095  0.98092328     1.36900
C1000       C  0.67483863  0.94274714  0.95671849     0.78200
O1001       O  0.62924774  0.88748334  0.90406322    -0.60200
O1002       O  0.60486270  0.91374701  0.94851073    -0.51100
C1003       C  0.67741907  0.85824193  0.98577184     0.70900
O1004       O  0.68391199  0.88259669  0.99736125    -0.46000
C1005       C  0.61289569  0.90525585  0.56475620     0.75600
O1006       O  0.66420719  0.92705617  0.92413676    -0.57800
O1007       O  0.61411935  0.88211293  0.54292083    -0.47900
O1008       O  0.67020407  0.93580284  0.00153834    -0.54300
C1009       C  0.60843943  0.90178332  0.90664264     0.85800
O1010       O  0.65302529  0.85442013  0.97373141    -0.56100
O1011       O  0.62658415  0.92408989  0.54317474    -0.59400
In1012     In  0.63131283  0.15101076  0.95263378     1.36900
C1013       C  0.67585662  0.12250979  0.94324997     0.78200
O1014       O  0.62572661  0.13770171  0.52973664    -0.60200
O1015       O  0.58736662  0.14493171  0.49918475    -0.51100
C1016       C  0.64914941  0.20312886  0.96221232     0.70900
O1017       O  0.65800425  0.18690152  0.92912222    -0.46000
C1018       C  0.60353690  0.13151656  0.87364634     0.75600
O1019       O  0.66296219  0.12487568  0.98441500    -0.57800
O1020       O  0.61671854  0.11693783  0.90216282    -0.47900
O1021       O  0.66713135  0.13638286  0.90796055    -0.54300
C1022       C  0.60032359  0.13687771  0.53626072     0.85800
O1023       O  0.62948481  0.19352448  0.98794095    -0.56100
O1024       O  0.60290311  0.15642337  0.88750440    -0.59400
C1025       C  0.70737809  0.06321275  0.88195340     0.19400
C1026       C  0.68630057  0.04284473  0.34018915    -0.18700
C1027       C  0.68672379  0.01432918  0.34287260    -0.11000
C1028       C  0.70124748  0.00597999  0.88678471     0.21600
C1029       C  0.72049565  0.02012277  0.91652950    -0.20400
C1030       C  0.72347702  0.04864430  0.91426213    -0.11200
C1031       C  0.69223994  0.97736692  0.89707281    -0.15400
C1032       C  0.69042376  0.96796173  0.94422256    -0.29200
C1033       C  0.69196407  0.08826973  0.38194857    -0.03500
C1034       C  0.69704218  0.10237467  0.93593732    -0.40000
H1035       H  0.67341119  0.05189508  0.31306344     0.12800
H1036       H  0.67431540  0.00197511  0.31761678     0.12400
H1037       H  0.73206063  0.00938672  0.94355622     0.11800
H1038       H  0.73688579  0.05941492  0.94003786     0.12100
H1039       H  0.68293088  0.96543490  0.86689304     0.14800
H1040       H  0.69717179  0.97773204  0.47131613     0.13600
H1041       H  0.68294813  0.09767122  0.34985283     0.11300
H1042       H  0.70182830  0.09054434  0.96856097     0.13300
C1043       C  0.71351920  0.79031790  0.96580163     0.19400
C1044       C  0.70780494  0.76282380  0.97793201    -0.18700
C1045       C  0.72844873  0.74381542  0.97633568    -0.11000
C1046       C  0.75506230  0.75204820  0.96177235     0.21600
C1047       C  0.76027778  0.77912681  0.94663579    -0.20400
C1048       C  0.73981107  0.79810566  0.94880932    -0.11200
C1049       C  0.77821713  0.73356875  0.96309434    -0.15400
C1050       C  0.77947969  0.71254138  0.99487052    -0.29200
C1051       C  0.69192368  0.81065062  0.97066933    -0.03500
C1052       C  0.69757318  0.83675010  0.98476700    -0.40000
H1053       H  0.68753170  0.75624337  0.98998633     0.12800
H1054       H  0.72353401  0.72285384  0.98662685     0.12400
H1055       H  0.78048111  0.78584422  0.93431968     0.11800
H1056       H  0.74461804  0.81887983  0.93710690     0.12100
H1057       H  0.79616047  0.73931292  0.94065296     0.14800
H1058       H  0.76234487  0.70683468  0.01922271     0.13600
H1059       H  0.67113498  0.80398368  0.96361880     0.11300
H1060       H  0.71809551  0.84302548  0.99457059     0.13300
C1061       C  0.01779420  0.73450054  0.54461774     0.19400
C1062       C  0.99780233  0.73119983  0.58262938    -0.18700
C1063       C  0.97038086  0.72979351  0.57107920    -0.11000
C1064       C  0.96063617  0.74593863  0.01175275     0.21600
C1065       C  0.97844465  0.74211932  0.97060978    -0.20400
C1066       C  0.00611792  0.73937187  0.97767765    -0.11200
C1067       C  0.93125990  0.74030514  0.00375412    -0.15400
C1068       C  0.91381395  0.73258933  0.04081348    -0.29200
C1069       C  0.04595233  0.72752412  0.55674009    -0.03500
C1070       C  0.06255306  0.72408319  0.00227189    -0.40000
H1071       H  0.00344280  0.72748936  0.62097182     0.12800
H1072       H  0.95582012  0.72479760  0.60080590     0.12400
H1073       H  0.97065469  0.73887171  0.93311784     0.11800
H1074       H  0.01843685  0.73405415  0.94524842     0.12100
H1075       H  0.92502507  0.73704368  0.96510051     0.14800
H1076       H  0.91385709  0.73466841  0.57266141     0.13600
H1077       H  0.04869469  0.71880561  0.59354913     0.11300
H1078       H  0.06059344  0.73020822  0.96373701     0.13300
C1079       C  0.70220227  0.26235536  0.96107385     0.19400
C1080       C  0.71890454  0.27486531  0.92416936    -0.18700
C1081       C  0.73870583  0.29462224  0.93734461    -0.11000
C1082       C  0.74240410  0.30220510  0.98803950     0.21600
C1083       C  0.72561183  0.28977513  0.02502400    -0.20400
C1084       C  0.70556709  0.27015536  0.01174446    -0.11200
C1085       C  0.76548777  0.32052405  0.00357988    -0.15400
C1086       C  0.77757865  0.33900209  0.97275545    -0.29200
C1087       C  0.68411897  0.23891581  0.94592504    -0.03500
C1088       C  0.66215795  0.23018522  0.97274316    -0.40000
H1089       H  0.71714594  0.26874636  0.88506644     0.12800
H1090       H  0.75190542  0.30281501  0.90781057     0.12400
H1091       H  0.72846598  0.29476074  0.06435502     0.11800
H1092       H  0.69372438  0.26022450  0.04140788     0.12100
H1093       H  0.77379806  0.31748535  0.04040350     0.14800
H1094       H  0.76906387  0.34300580  0.93655948     0.13600
H1095       H  0.68999308  0.22753058  0.91216293     0.11300
H1096       H  0.65509568  0.24173169  0.00540554     0.13300
C1097       C  0.94671780  0.28342872  0.98924647     0.19400
C1098       C  0.96459018  0.27657032  0.94961496    -0.18700
C1099       C  0.99254292  0.27712575  0.95668226    -0.11000
C1100       C  0.99775712  0.28737585  0.49482398     0.21600
C1101       C  0.97979117  0.28681504  0.53646133    -0.20400
C1102       C  0.95181764  0.28495056  0.52998564    -0.11200
C1103       C  0.02601879  0.29778802  0.50301323    -0.15400
C1104       C  0.04902919  0.30035998  0.97099757    -0.29200
C1105       C  0.91963243  0.29322920  0.97644244    -0.03500
C1106       C  0.90049944  0.29963971  0.01098297    -0.40000
H1107       H  0.95712733  0.27324825  0.91202530     0.12800
H1108       H  0.00556864  0.27361001  0.92414294     0.12400
H1109       H  0.98730030  0.29008211  0.57405575     0.11800
H1110       H  0.93897617  0.28690875  0.56320714     0.12100
H1111       H  0.03033496  0.30624430  0.54016571     0.14800
H1112       H  0.04565659  0.29165884  0.93380776     0.13600
H1113       H  0.91745592  0.30016633  0.93818614     0.11300
H1114       H  0.89716171  0.29209307  0.54560366     0.13300
C1115       C  0.25187731  0.24000196  0.97987030     0.19400
C1116       C  0.24372488  0.25560276  0.93953131    -0.18700
C1117       C  0.22320443  0.27444341  0.94603654    -0.11000
C1118       C  0.21020948  0.27788345  0.99325560     0.21600
C1119       C  0.21209977  0.25864254  0.52985027    -0.20400
C1120       C  0.23292137  0.24006068  0.52501647    -0.11200
C1121       C  0.18708706  0.29621039  0.00120895    -0.15400
C1122       C  0.18241706  0.31750038  0.97167277    -0.29200
C1123       C  0.27227327  0.21875978  0.97026458    -0.03500
C1124       C  0.28735793  0.20850622  0.00636274    -0.40000
H1125       H  0.25306504  0.25292878  0.90270066     0.12800
H1126       H  0.21704298  0.28546985  0.91357547     0.12400
H1127       H  0.19858229  0.25752924  0.56246143     0.11800
H1128       H  0.23440935  0.22492112  0.55389563     0.12100
H1129       H  0.17321967  0.29185082  0.03260686     0.14800
H1130       H  0.19641892  0.32313061  0.94129940     0.13600
H1131       H  0.27444225  0.21077540  0.93208571     0.11300
H1132       H  0.28630235  0.21674659  0.04441053     0.13300
C1133       C  0.22574997  0.72372953  0.08212894     0.19400
C1134       C  0.23305966  0.73749673  0.12665363    -0.18700
C1135       C  0.25351564  0.75802352  0.12621805    -0.11000
C1136       C  0.26983427  0.76370107  0.57245230     0.21600
C1137       C  0.25797275  0.75408791  0.52769133    -0.20400
C1138       C  0.23715451  0.73384432  0.52891886    -0.11200
C1139       C  0.28827911  0.78843606  0.57382566    -0.15400
C1140       C  0.30113889  0.79873819  0.04228050    -0.29200
C1141       C  0.19998151  0.70716112  0.08185264    -0.03500
C1142       C  0.19370595  0.68815055  0.04655948    -0.40000
H1143       H  0.22198658  0.73327123  0.16141282     0.12800
H1144       H  0.25780939  0.76918946  0.16083498     0.12400
H1145       H  0.26351346  0.76327359  0.49203048     0.11800
H1146       H  0.22738534  0.72810282  0.49418635     0.12100
H1147       H  0.28812351  0.80063320  0.60829827     0.14800
H1148       H  0.30469405  0.78525252  0.01036024     0.13600
H1149       H  0.18470948  0.71220671  0.11037755     0.11300
H1150       H  0.20892816  0.68127652  0.01948777     0.13300
C1151       C  0.24912337  0.02755493  0.51696551     0.19400
C1152       C  0.25265853  0.01549146  0.56359186    -0.18700
C1153       C  0.25465035  0.98713589  0.56693944    -0.11000
C1154       C  0.25873668  0.97752367  0.01876006     0.21600
C1155       C  0.25303356  0.99116978  0.97443646    -0.20400
C1156       C  0.25060379  0.01963346  0.97451823    -0.11200
C1157       C  0.26859183  0.94904666  0.01436491    -0.15400
C1158       C  0.27633920  0.93445411  0.05360454    -0.29200
C1159       C  0.25555273  0.05726414  0.51244854    -0.03500
C1160       C  0.26620608  0.07977350  0.97886182    -0.40000
H1161       H  0.25624095  0.02813372  0.59668219     0.12800
H1162       H  0.25927117  0.97907013  0.60319796     0.12400
H1163       H  0.25226216  0.98002367  0.93890707     0.11800
H1164       H  0.24765635  0.02931505  0.93901910     0.12100
H1165       H  0.27317643  0.94131241  0.97661976     0.14800
H1166       H  0.27335792  0.93821768  0.59744135     0.13600
H1167       H  0.25458779  0.06984507  0.54647305     0.11300
H1168       H  0.26169462  0.07191640  0.94159180     0.13300
C1169       C  0.01140682  0.62529709  0.87848457     0.19400
C1170       C  0.99336347  0.62484164  0.83869215    -0.18700
C1171       C  0.96552814  0.62683892  0.84814478    -0.11000
C1172       C  0.95532054  0.62915178  0.89781952     0.21600
C1173       C  0.97337982  0.62957675  0.93754849    -0.20400
C1174       C  0.00110399  0.62762154  0.92812564    -0.11200
C1175       C  0.92599036  0.62819143  0.91020684    -0.15400
C1176       C  0.90668001  0.63429552  0.87782695    -0.29200
C1177       C  0.04051208  0.62079878  0.86798166    -0.03500
C1178       C  0.05967528  0.62987467  0.89976001    -0.40000
H1179       H  0.00080693  0.62250123  0.80032773     0.12800
H1180       H  0.95212291  0.62545236  0.81663993     0.12400
H1181       H  0.96594260  0.63072907  0.97612960     0.11800
H1182       H  0.01419479  0.62677914  0.96004356     0.12100
H1183       H  0.91978647  0.62107038  0.94738690     0.14800
H1184       H  0.91229752  0.64233566  0.84108901     0.13600
H1185       H  0.04613997  0.60832923  0.83538882     0.11300
H1186       H  0.05375067  0.64368982  0.93031870     0.13300
C1187       C  0.88188252  0.54823200  0.88077032     0.19400
C1188       C  0.88872455  0.53028510  0.84109758    -0.18700
C1189       C  0.89002844  0.50215614  0.84883525    -0.11000
C1190       C  0.88459700  0.49118006  0.89667613     0.21600
C1191       C  0.87814189  0.50900614  0.93666907    -0.20400
C1192       C  0.87661898  0.53726898  0.92887473    -0.11200
C1193       C  0.88661167  0.46127288  0.90497400    -0.15400
C1194       C  0.87773471  0.44298011  0.87024955    -0.29200
C1195       C  0.88186700  0.57811020  0.87013485    -0.03500
C1196       C  0.87314032  0.59772644  0.90239292    -0.40000
H1197       H  0.89326978  0.53807517  0.80385367     0.12800
H1198       H  0.89582585  0.48903545  0.81747709     0.12400
H1199       H  0.87399181  0.50099380  0.97382313     0.11800
H1200       H  0.87170578  0.55024317  0.96078993     0.12100
H1201       H  0.89619535  0.45434187  0.93856372     0.14800
H1202       H  0.86686972  0.45087951  0.83876977     0.13600
H1203       H  0.89020147  0.58457522  0.83388102     0.11300
H1204       H  0.86440882  0.59212587  0.93867905     0.13300
C1205       C  0.10912257  0.54470886  0.88564365     0.19400
C1206       C  0.12458456  0.52582777  0.91051544    -0.18700
C1207       C  0.12249331  0.49786552  0.89762542    -0.11000
C1208       C  0.10523589  0.48861984  0.85898155     0.21600
C1209       C  0.09087762  0.50781050  0.83276920    -0.20400
C1210       C  0.09268319  0.53550284  0.84603346    -0.11200
C1211       C  0.10134606  0.45932159  0.84452388    -0.15400
C1212       C  0.10426427  0.43855326  0.87627879    -0.29200
C1213       C  0.11071176  0.57421540  0.89925818    -0.03500
C1214       C  0.08826859  0.58909288  0.89949531    -0.40000
H1215       H  0.13783497  0.53264461  0.94035883     0.12800
H1216       H  0.13454679  0.48369176  0.91758573     0.12400
H1217       H  0.07781977  0.50129248  0.80243150     0.11800
H1218       H  0.08130854  0.54981981  0.82495303     0.12100
H1219       H  0.09348460  0.45459890  0.80747914     0.14800
H1220       H  0.11081356  0.44298516  0.91428634     0.13600
H1221       H  0.13043003  0.58401724  0.90570206     0.11300
H1222       H  0.06880686  0.57808063  0.89679135     0.13300
C1223       C  0.01790061  0.41533437  0.86618505     0.19400
C1224       C  0.99909063  0.41694715  0.90620860    -0.18700
C1225       C  0.97152597  0.41832392  0.89733723    -0.11000
C1226       C  0.96197834  0.41782942  0.84796622     0.21600
C1227       C  0.98071757  0.41640924  0.80769517    -0.20400
C1228       C  0.00851279  0.41513850  0.81656337    -0.11200
C1229       C  0.93260052  0.41971610  0.83851758    -0.15400
C1230       C  0.91406780  0.40842488  0.87045388    -0.29200
C1231       C  0.04700378  0.41550009  0.87854183    -0.03500
C1232       C  0.06681260  0.40726001  0.84688321    -0.40000
H1233       H  0.00578547  0.41749028  0.94468066     0.12800
H1234       H  0.95779419  0.42045004  0.92938565     0.12400
H1235       H  0.97377447  0.41615648  0.76951693     0.11800
H1236       H  0.02242450  0.41465973  0.78457047     0.12100
H1237       H  0.92624499  0.43084337  0.80613894     0.14800
H1238       H  0.92146885  0.39627758  0.90078228     0.13600
H1239       H  0.05252220  0.42241493  0.91609483     0.11300
H1240       H  0.06181315  0.39953724  0.80963995     0.13300
C1241       C  0.59532980  0.04076701  0.84494355     0.19400
C1242       C  0.58312069  0.02363948  0.88139265    -0.18700
C1243       C  0.58719976  0.99555404  0.88051070    -0.11000
C1244       C  0.60357750  0.98364326  0.84284177     0.21600
C1245       C  0.61627808  0.00061415  0.80659148    -0.20400
C1246       C  0.61212072  0.02898345  0.80734485    -0.11200
C1247       C  0.60773395  0.95362784  0.84251284    -0.15400
C1248       C  0.58707553  0.93591866  0.85430435    -0.29200
C1249       C  0.58987790  0.07056191  0.84919868    -0.03500
C1250       C  0.59842693  0.09018270  0.81678047    -0.40000
H1251       H  0.57033574  0.03205179  0.91112705     0.12800
H1252       H  0.57779550  0.98319513  0.90989537     0.12400
H1253       H  0.62919759  0.99186723  0.77741359     0.11800
H1254       H  0.62216445  0.04135627  0.77881223     0.12100
H1255       H  0.62778743  0.94610941  0.83362161     0.14800
H1256       H  0.56703580  0.94422598  0.86017440     0.13600
H1257       H  0.57760343  0.07698206  0.88151708     0.11300
H1258       H  0.61036122  0.08487396  0.78350446     0.13300
C1259       C  0.45524540  0.88643257  0.86796530     0.19400
C1260       C  0.47231016  0.89361836  0.90812835    -0.18700
C1261       C  0.50064720  0.89395111  0.90134080    -0.11000
C1262       C  0.51245097  0.88711315  0.85427949     0.21600
C1263       C  0.49544634  0.87856666  0.81524853    -0.20400
C1264       C  0.46728944  0.87813809  0.82199751    -0.11200
C1265       C  0.54170417  0.89255443  0.84216702    -0.15400
C1266       C  0.56164895  0.89325077  0.87601612    -0.29200
C1267       C  0.42506187  0.88836310  0.87033466    -0.03500
C1268       C  0.40993836  0.89794778  0.90975462    -0.40000
H1269       H  0.46407220  0.89985457  0.94436611     0.12800
H1270       H  0.51312112  0.90101196  0.93208033     0.12400
H1271       H  0.50399096  0.87297960  0.77876051     0.11800
H1272       H  0.45485667  0.87216089  0.79044581     0.12100
H1273       H  0.54692732  0.89787282  0.80351284     0.14800
H1274       H  0.55714390  0.88662716  0.91419154     0.13600
H1275       H  0.41505761  0.88291927  0.83565099     0.11300
H1276       H  0.41988638  0.90485846  0.94373273     0.13300
C1277       C  0.51370447  0.12988971  0.85818095     0.19400
C1278       C  0.49621757  0.12569651  0.89994492    -0.18700
C1279       C  0.46805207  0.12345962  0.89397351    -0.11000
C1280       C  0.45706688  0.12574692  0.84600426     0.21600
C1281       C  0.47447266  0.13138408  0.80491208    -0.20400
C1282       C  0.50240640  0.13381115  0.81093320    -0.11200
C1283       C  0.42803243  0.12005037  0.83613132    -0.15400
C1284       C  0.40762151  0.12589024  0.86859886    -0.29200
C1285       C  0.54359871  0.12957024  0.86403155    -0.03500
C1286       C  0.55991253  0.12063289  0.82626725    -0.40000
H1287       H  0.50444547  0.12325041  0.93671607     0.12800
H1288       H  0.45509776  0.11882079  0.92635618     0.12400
H1289       H  0.46640779  0.13359772  0.76778358     0.11800
H1290       H  0.51509499  0.13848346  0.77825689     0.12100
H1291       H  0.42329400  0.11072378  0.79993340     0.14800
H1292       H  0.41234156  0.13568583  0.90446272     0.13600
H1293       H  0.55192070  0.13564830  0.90000581     0.11300
H1294       H  0.55064473  0.11258567  0.79224156     0.13300
C1295       C  0.38263025  0.98079067  0.87470278     0.19400
C1296       C  0.38039528  0.99581696  0.83050505    -0.18700
C1297       C  0.37949414  0.02456256  0.83232143    -0.11000
C1298       C  0.38127368  0.03889712  0.87853969     0.21600
C1299       C  0.38356708  0.02377131  0.92261935    -0.20400
C1300       C  0.38416004  0.99513704  0.92084278    -0.11200
C1301       C  0.38250444  0.06943903  0.88301778    -0.15400
C1302       C  0.37550553  0.08723738  0.84743201    -0.29200
C1303       C  0.38497512  0.95041362  0.87162267    -0.03500
C1304       C  0.37526786  0.93357839  0.90807657    -0.40000
H1305       H  0.37946909  0.98527229  0.79444658     0.12800
H1306       H  0.37820385  0.03536925  0.79738613     0.12400
H1307       H  0.38526254  0.03419424  0.95869359     0.11800
H1308       H  0.38669156  0.98436483  0.95555707     0.12100
H1309       H  0.38937255  0.07803322  0.91862507     0.14800
H1310       H  0.36798883  0.07961133  0.81171446     0.13600
H1311       H  0.39461629  0.94161076  0.83829343     0.11300
H1312       H  0.36440587  0.94257899  0.93994342     0.13300
C1313       C  0.75820845  0.54262882  0.72715657     0.19400
C1314       C  0.75184466  0.52568594  0.76833281    -0.18700
C1315       C  0.75601690  0.49755437  0.76475163    -0.11000
C1316       C  0.76647826  0.48602214  0.71988292     0.21600
C1317       C  0.76932523  0.50238981  0.67717195    -0.20400
C1318       C  0.76521143  0.53047054  0.68076996    -0.11200
C1319       C  0.77780005  0.45833247  0.71724792    -0.15400
C1320       C  0.78735527  0.44581359  0.75745927    -0.29200
C1321       C  0.76240733  0.57271592  0.73263562    -0.03500
C1322       C  0.77075309  0.58443794  0.77584532    -0.40000
H1323       H  0.74503613  0.53420290  0.80402387     0.12800
H1324       H  0.75219965  0.48525741  0.79774797     0.12400
H1325       H  0.77689352  0.49389571  0.64188296     0.11800
H1326       H  0.76984278  0.54299874  0.64826848     0.12100
H1327       H  0.78237416  0.44994944  0.68002390     0.14800
H1328       H  0.78398301  0.45382094  0.79521685     0.13600
H1329       H  0.76476769  0.58436852  0.69825295     0.11300
H1330       H  0.76970347  0.57318676  0.81063838     0.13300
C1331       C  0.76632829  0.76382259  0.75889011     0.19400
C1332       C  0.76321542  0.77965231  0.71593205    -0.18700
C1333       C  0.74532381  0.80130493  0.71648351    -0.11000
C1334       C  0.72997210  0.80755977  0.76015048     0.21600
C1335       C  0.73407911  0.79272586  0.80378906    -0.20400
C1336       C  0.75193929  0.77110130  0.80329821    -0.11200
C1337       C  0.70827229  0.82800485  0.76097357    -0.15400
C1338       C  0.69384306  0.83317529  0.72021161    -0.29200
C1339       C  0.78434382  0.73982934  0.75523160    -0.03500
C1340       C  0.78576309  0.72082279  0.79104867    -0.40000
H1341       H  0.77428782  0.77492596  0.68143498     0.12800
H1342       H  0.74336964  0.81286404  0.68249428     0.12400
H1343       H  0.72270823  0.79727256  0.83805981     0.11800
H1344       H  0.75401589  0.76024215  0.83786974     0.12100
H1345       H  0.70129076  0.83579595  0.79735288     0.14800
H1346       H  0.69911852  0.82383108  0.68419639     0.13600
H1347       H  0.79599422  0.73694480  0.72044972     0.11300
H1348       H  0.77373011  0.72222863  0.82548667     0.13300
C1349       C  0.45150644  0.78978172  0.76698034     0.19400
C1350       C  0.47106573  0.79482430  0.80365024    -0.18700
C1351       C  0.49853696  0.79687803  0.79016478    -0.11000
C1352       C  0.50687519  0.79381328  0.73958657     0.21600
C1353       C  0.48765012  0.78603241  0.70379751    -0.20400
C1354       C  0.46019939  0.78354990  0.71742071    -0.11200
C1355       C  0.53387610  0.80414727  0.72211236    -0.15400
C1356       C  0.55578202  0.80445118  0.75085592    -0.29200
C1357       C  0.42299552  0.79607190  0.78033593    -0.03500
C1358       C  0.40543100  0.80373935  0.74596015    -0.40000
H1359       H  0.46497960  0.79959799  0.84214064     0.12800
H1360       H  0.51278429  0.80337993  0.81855282     0.12400
H1361       H  0.49370150  0.78345741  0.66469078     0.11800
H1362       H  0.44594169  0.77837219  0.68833682     0.12100
H1363       H  0.53495438  0.81474894  0.68650456     0.14800
H1364       H  0.55584938  0.79263875  0.78500637     0.13600
H1365       H  0.41817739  0.80011208  0.81979693     0.11300
H1366       H  0.40962123  0.80083657  0.70615113     0.13300
C1367       C  0.19686786  0.75413973  0.78877431     0.19400
C1368       C  0.20791233  0.76787722  0.83078535    -0.18700
C1369       C  0.22823370  0.78843787  0.82472961    -0.11000
C1370       C  0.23808206  0.79521081  0.77640525     0.21600
C1371       C  0.22628443  0.78235835  0.73452406    -0.20400
C1372       C  0.20583339  0.76216062  0.74044807    -0.11200
C1373       C  0.26362155  0.81142785  0.76856224    -0.15400
C1374       C  0.27115183  0.83375517  0.79567565    -0.29200
C1375       C  0.17891847  0.72936191  0.79636422    -0.03500
C1376       C  0.16275009  0.71864707  0.76059360    -0.40000
H1377       H  0.20160308  0.76187713  0.86843944     0.12800
H1378       H  0.23746217  0.79761175  0.85768251     0.12400
H1379       H  0.23379922  0.78713205  0.69699972     0.11800
H1380       H  0.19849651  0.75177294  0.70704716     0.12100
H1381       H  0.27727933  0.80412779  0.73894068     0.14800
H1382       H  0.25728493  0.84292982  0.82286750     0.13600
H1383       H  0.18035695  0.71862438  0.83159581     0.11300
H1384       H  0.15988185  0.72956356  0.72609261     0.13300
C1385       C  0.21573738  0.48760387  0.72198454     0.19400
C1386       C  0.21073065  0.50654004  0.68454942    -0.18700
C1387       C  0.20868958  0.53431280  0.69641079    -0.11000
C1388       C  0.21188199  0.54377085  0.74617200     0.21600
C1389       C  0.21988698  0.52536656  0.78239223    -0.20400
C1390       C  0.22198302  0.49752033  0.77048327    -0.11200
C1391       C  0.20122144  0.57038005  0.76344136    -0.15400
C1392       C  0.19550055  0.59055607  0.73214552    -0.29200
C1393       C  0.20846527  0.45836388  0.71109242    -0.03500
C1394       C  0.20647094  0.43883309  0.74610874    -0.40000
H1395       H  0.20586309  0.49955590  0.64687497     0.12800
H1396       H  0.20206897  0.54759714  0.66741922     0.12400
H1397       H  0.22248853  0.53217537  0.82100637     0.11800
H1398       H  0.22642967  0.48387678  0.80048200     0.12100
H1399       H  0.19383905  0.57156226  0.80229334     0.14800
H1400       H  0.20380573  0.59101388  0.69400010     0.13600
H1401       H  0.19913929  0.45398519  0.67510373     0.11300
H1402       H  0.21621384  0.44130957  0.78196462     0.13300
C1403       C  0.77393918  0.27679985  0.69880785     0.19400
C1404       C  0.75517869  0.27141396  0.66083042    -0.18700
C1405       C  0.73546298  0.25031142  0.66575610    -0.11000
C1406       C  0.73390667  0.23428097  0.70922593     0.21600
C1407       C  0.75324549  0.23905013  0.74645494    -0.20400
C1408       C  0.77325351  0.25993720  0.74116839    -0.11200
C1409       C  0.71036396  0.21520796  0.71952503    -0.15400
C1410       C  0.69619683  0.20235953  0.68303361    -0.29200
C1411       C  0.79073089  0.30259713  0.69671768    -0.03500
C1412       C  0.81397847  0.30717614  0.72135208    -0.40000
H1413       H  0.75504109  0.28435788  0.62821620     0.12800
H1414       H  0.72046554  0.24779877  0.63687954     0.12400
H1415       H  0.75223871  0.22724616  0.78054975     0.11800
H1416       H  0.78696309  0.26393508  0.77176173     0.12100
H1417       H  0.70369059  0.21277102  0.75842059     0.14800
H1418       H  0.70335146  0.20337215  0.64424053     0.13600
H1419       H  0.78274755  0.31923669  0.67551116     0.11300
H1420       H  0.82366059  0.29065438  0.73999735     0.13300
C1421       C  0.21082383  0.27158558  0.72944501     0.19400
C1422       C  0.21730609  0.25211662  0.69205796    -0.18700
C1423       C  0.23857955  0.23433055  0.69847344    -0.11000
C1424       C  0.25405831  0.23611769  0.74218525     0.21600
C1425       C  0.24717914  0.25519092  0.77987759    -0.20400
C1426       C  0.22571969  0.27260153  0.77387359    -0.11200
C1427       C  0.27932100  0.22093128  0.74739680    -0.15400
C1428       C  0.28415769  0.19684021  0.72433443    -0.29200
C1429       C  0.19095890  0.29280836  0.71902957    -0.03500
C1430       C  0.17700942  0.30556807  0.75591465    -0.40000
H1431       H  0.20640632  0.25122099  0.65727406     0.12800
H1432       H  0.24375807  0.22033550  0.66803092     0.12400
H1433       H  0.25912324  0.25731041  0.81333071     0.11800
H1434       H  0.22197030  0.28789942  0.80289225     0.12100
H1435       H  0.29480306  0.23022416  0.77122712     0.14800
H1436       H  0.26853891  0.18620174  0.70275921     0.13600
H1437       H  0.18915197  0.29929175  0.68046020     0.11300
H1438       H  0.17778979  0.29845215  0.79423112     0.13300
C1439       C  0.46561992  0.23994521  0.72817292     0.19400
C1440       C  0.48324492  0.24600446  0.76769846    -0.18700
C1441       C  0.51116959  0.24936735  0.75861846    -0.11000
C1442       C  0.52208225  0.24633821  0.70952474     0.21600
C1443       C  0.50416181  0.24309572  0.66957216    -0.20400
C1444       C  0.47626784  0.23979634  0.67863143    -0.11200
C1445       C  0.55124164  0.24128081  0.69874684    -0.15400
C1446       C  0.56870310  0.23476649  0.73431055    -0.29200
C1447       C  0.43777494  0.22914717  0.74074028    -0.03500
C1448       C  0.41838481  0.22452712  0.70673156    -0.40000
H1449       H  0.47558368  0.24644621  0.80620059     0.12800
H1450       H  0.52395103  0.25271940  0.79056617     0.12400
H1451       H  0.51189414  0.24081547  0.63131808     0.11800
H1452       H  0.46367291  0.23497375  0.64691185     0.12100
H1453       H  0.55678230  0.23669400  0.65979594     0.14800
H1454       H  0.56440991  0.23898343  0.77366804     0.13600
H1455       H  0.43424821  0.22155250  0.77857877     0.11300
H1456       H  0.42054548  0.23269862  0.66921615     0.13300
C1457       C  0.58755289  0.98963508  0.60047566     0.19400
C1458       C  0.58725532  0.00647003  0.55837898    -0.18700
C1459       C  0.58619871  0.03487085  0.56406840    -0.11000
C1460       C  0.58544565  0.04719544  0.61228186     0.21600
C1461       C  0.58522437  0.03035137  0.65449785    -0.20400
C1462       C  0.58646560  0.00180766  0.64877050    -0.11200
C1463       C  0.58329184  0.07736308  0.61898208    -0.15400
C1464       C  0.59360728  0.09499763  0.58457755    -0.29200
C1465       C  0.58733619  0.95952681  0.59191464    -0.03500
C1466       C  0.59642628  0.94127927  0.62452593    -0.40000
H1467       H  0.58761132  0.99756980  0.52075676     0.12800
H1468       H  0.58518900  0.04697440  0.53056729     0.12400
H1469       H  0.58407933  0.03931044  0.69197888     0.11800
H1470       H  0.58582894  0.98940396  0.68206398     0.12100
H1471       H  0.57225528  0.08518552  0.65168749     0.14800
H1472       H  0.60566016  0.08684541  0.55341066     0.13600
H1473       H  0.58016027  0.95188809  0.55578999     0.11300
H1474       H  0.60448135  0.94858206  0.66006366     0.13300
C1475       C  0.51731167  0.89895300  0.63097502     0.19400
C1476       C  0.50006615  0.90151885  0.67332928    -0.18700
C1477       C  0.47197845  0.89976178  0.66880543    -0.11000
C1478       C  0.46035564  0.89546864  0.62152275     0.21600
C1479       C  0.47746934  0.89231634  0.57915461    -0.20400
C1480       C  0.50569835  0.89383201  0.58371367    -0.11200
C1481       C  0.43078521  0.89801818  0.61514785    -0.15400
C1482       C  0.41250718  0.89168129  0.65190501    -0.29200
C1483       C  0.54687660  0.90398864  0.63810026    -0.03500
C1484       C  0.56630263  0.90153990  0.60198940    -0.40000
H1485       H  0.50835397  0.90592745  0.70996034     0.12800
H1486       H  0.45946499  0.90327090  0.70210699     0.12400
H1487       H  0.46895227  0.88931174  0.54231877     0.11800
H1488       H  0.51802395  0.89198548  0.54981797     0.12100
H1489       H  0.42413030  0.90786180  0.58148775     0.14800
H1490       H  0.41912814  0.88029167  0.68389039     0.13600
H1491       H  0.55309954  0.91123274  0.67502822     0.11300
H1492       H  0.56119964  0.89388690  0.56486453     0.13300
C1493       C  0.50896090  0.11407271  0.57323286     0.19400
C1494       C  0.48994943  0.10719161  0.53630652    -0.18700
C1495       C  0.46207156  0.10657971  0.54805452    -0.11000
C1496       C  0.45278897  0.11213671  0.59746981     0.21600
C1497       C  0.47179801  0.11800909  0.63464935    -0.20400
C1498       C  0.49949381  0.11901231  0.62281789    -0.11200
C1499       C  0.42370182  0.11021436  0.61273791    -0.15400
C1500       C  0.40325209  0.11551963  0.58216591    -0.29200
C1501       C  0.53854683  0.11429355  0.56029204    -0.03500
C1502       C  0.55681374  0.12903641  0.58738038    -0.40000
H1503       H  0.49670162  0.10211323  0.49848256     0.12800
H1504       H  0.44795020  0.10095141  0.51884654     0.12400
H1505       H  0.46517770  0.12171651  0.67317354     0.11800
H1506       H  0.51338033  0.12287793  0.65316576     0.12100
H1507       H  0.41882395  0.10507006  0.65157243     0.14800
H1508       H  0.40785990  0.12170546  0.54378744     0.13600
H1509       H  0.54555734  0.10117751  0.52966806     0.11300
H1510       H  0.54927160  0.14288641  0.61638544     0.13300
C1511       C  0.36691895  0.97866669  0.63916421     0.19400
C1512       C  0.34818315  0.99762264  0.65722814    -0.18700
C1513       C  0.34967810  0.02472780  0.64066344    -0.11000
C1514       C  0.36969038  0.03306150  0.60497264     0.21600
C1515       C  0.38777057  0.01386335  0.58573775    -0.20400
C1516       C  0.38654503  0.98700024  0.60277160    -0.11200
C1517       C  0.37234431  0.06152115  0.58680085    -0.15400
C1518       C  0.36761942  0.08333990  0.61679564    -0.29200
C1519       C  0.36433973  0.94964480  0.65460119    -0.03500
C1520       C  0.38605112  0.93373668  0.65521336    -0.40000
H1521       H  0.33243478  0.99144398  0.68418283     0.12800
H1522       H  0.33493423  0.03894103  0.65506382     0.12400
H1523       H  0.40307826  0.01974816  0.55766868     0.11800
H1524       H  0.40052781  0.97260802  0.58630207     0.12100
H1525       H  0.38082272  0.06483523  0.54921388     0.14800
H1526       H  0.36077677  0.07990911  0.65538540     0.13600
H1527       H  0.34413711  0.94053891  0.66047898     0.11300
H1528       H  0.40610632  0.94361610  0.65260734     0.13300
C1529       C  0.00325733  0.62056579  0.63988473     0.19400
C1530       C  0.98643554  0.63120807  0.60400451    -0.18700
C1531       C  0.95851492  0.63242564  0.61321362    -0.11000
C1532       C  0.94668695  0.62279204  0.65874426     0.21600
C1533       C  0.96369954  0.61227693  0.69470922    -0.20400
C1534       C  0.99170741  0.61127878  0.68555402    -0.11200
C1535       C  0.91671203  0.62088283  0.66791024    -0.15400
C1536       C  0.89905452  0.63402570  0.63995223    -0.29200
C1537       C  0.03221813  0.61672326  0.62668357    -0.03500
C1538       C  0.05207760  0.61958383  0.66035066    -0.40000
H1539       H  0.99486623  0.63805461  0.56823570     0.12800
H1540       H  0.94644157  0.63977904  0.58331392     0.12400
H1541       H  0.95520189  0.60413595  0.72947505     0.11800
H1542       H  0.00412449  0.60209335  0.71321098     0.12100
H1543       H  0.90879433  0.60683042  0.69636320     0.14800
H1544       H  0.90693104  0.64879547  0.61283549     0.13600
H1545       H  0.03738538  0.61114519  0.58804156     0.11300
H1546       H  0.04682919  0.62644392  0.69831944     0.13300
C1547       C  0.87252710  0.54911561  0.60495418     0.19400
C1548       C  0.89248946  0.53351800  0.58062053    -0.18700
C1549       C  0.89317655  0.50511717  0.58749694    -0.11000
C1550       C  0.87366655  0.49162283  0.61871107     0.21600
C1551       C  0.85326288  0.50705037  0.64171868    -0.20400
C1552       C  0.85238268  0.53529686  0.63439444    -0.11200
C1553       C  0.87450365  0.46187424  0.63005524    -0.15400
C1554       C  0.88561379  0.44325668  0.59847142    -0.29200
C1555       C  0.87421367  0.57969823  0.60113067    -0.03500
C1556       C  0.86310484  0.59638780  0.63632751    -0.40000
H1557       H  0.90819107  0.54348142  0.55751731     0.12800
H1558       H  0.90954242  0.49409074  0.56978392     0.12400
H1559       H  0.83783878  0.49716806  0.66554066     0.11800
H1560       H  0.83585708  0.54603642  0.65215413     0.12100
H1561       H  0.86527447  0.45532966  0.66544374     0.14800
H1562       H  0.89430594  0.45014652  0.56280184     0.13600
H1563       H  0.88720710  0.58875254  0.57182276     0.11300
H1564       H  0.85145917  0.58715076  0.66711998     0.13300
C1565       C  0.09721783  0.48004691  0.59213268     0.19400
C1566       C  0.07640319  0.49706161  0.57846226    -0.18700
C1567       C  0.07848892  0.52536639  0.58731557    -0.11000
C1568       C  0.10155550  0.53736537  0.61011973     0.21600
C1569       C  0.12312988  0.52062867  0.62089030    -0.20400
C1570       C  0.12101278  0.49223821  0.61217664    -0.11200
C1571       C  0.10348202  0.56719416  0.62293948    -0.15400
C1572       C  0.08140615  0.58134360  0.63635004    -0.32400
C1573       C  0.09278897  0.44978846  0.58659328    -0.03500
C1574       C  0.10465701  0.43183037  0.61620402    -0.40000
H1575       H  0.05810317  0.48833778  0.56213716     0.12800
H1576       H  0.06194268  0.53777396  0.57637613     0.12400
H1577       H  0.14137543  0.52944067  0.63732155     0.11800
H1578       H  0.13800793  0.48001926  0.62138292     0.12100
H1579       H  0.12338554  0.57737588  0.62331393     0.14800
H1580       H  0.06204785  0.57008596  0.63897791     0.13600
H1581       H  0.07701460  0.44224277  0.56168820     0.11300
H1582       H  0.11913815  0.43977085  0.64331214     0.13300
C1583       C  0.96376106  0.41650360  0.65052268     0.19400
C1584       C  0.97669845  0.39279959  0.63316579    -0.18700
C1585       C  0.00477529  0.39053627  0.63759570    -0.11000
C1586       C  0.02069277  0.41202294  0.65916375     0.21600
C1587       C  0.00755185  0.43520823  0.67807547    -0.20400
C1588       C  0.97948117  0.43743080  0.67375882    -0.11200
C1589       C  0.05096817  0.41157265  0.66063828    -0.15400
C1590       C  0.06584963  0.39731273  0.62672239    -0.29200
C1591       C  0.93396701  0.41996048  0.64653575    -0.03500
C1592       C  0.91813183  0.40698913  0.61209207    -0.40000
H1593       H  0.96522009  0.37575374  0.61680230     0.12800
H1594       H  0.01378394  0.37179257  0.62436848     0.12400
H1595       H  0.01912902  0.45196648  0.69532295     0.11800
H1596       H  0.97003557  0.45573857  0.68823566     0.12100
H1597       H  0.06139450  0.42584229  0.68600696     0.14800
H1598       H  0.05516646  0.38434708  0.59960862     0.13600
H1599       H  0.92472486  0.43489851  0.67172697     0.11300
H1600       H  0.92729299  0.39289267  0.58534405     0.13300
loop_ 
_geom_bond_atom_site_label_1 
_geom_bond_atom_site_label_2 
_geom_bond_distance 
_geom_bond_site_symmetry_2 
_ccdc_geom_bond_type 
C1           C58   1.518       .  S
C1          C170   1.514       .  S
C1          C774   1.530       .  S
C1          C790   1.531       .  S
C2           C93   1.519       .  S
C2          C153   1.521       .  S
C2          C754   1.531       .  S
C2          C792   1.534       .  S
C3           C41   1.512       .  S
C3          C192   1.518       .  S
C3          C738   1.533       .  S
C3          C772   1.531       .  S
C4          C110   1.519       .  S
C4          C183   1.517       .  S
C4          C736   1.532       .  S
C4          C756   1.527       .  S
C5           C15   1.523       .  S
C5          C140   1.524       .  S
C5          C700   1.527       .  S
C5          C718   1.532       .  S
C6           C84   1.526       .  S
C6          C131   1.514       .  S
C6          C682   1.534       .  S
C6          C720   1.531       .  S
C7           C32   1.516       .  S
C7          C222   1.514       .  S
C7          C664   1.525       .  S
C7          C702   1.528       .  S
C8           C67   1.520       .  S
C8          C205   1.521       .  S
C8          C666   1.535       .  S
C8          C684   1.529       .  S
In9          O11   2.268       .  S
In9          O12   2.267       .  S
In9          O20   2.268       .  S
In9          O14   2.242       .  S
In9          O16   2.258       .  S
In9          O17   2.251       .  S
In9          O18   2.232       .  S
In9          O21   2.260       .  S
C10          O16   1.260       .  A
C10          O18   1.260       .  A
C10         C648   1.471       .  S
O11          C19   1.257       .  A
O12          C19   1.261       .  A
C13          O20   1.259       .  A
C13          O14   1.254       .  A
C13         C628   1.470       .  S
C15          O17   1.264       .  A
C15          O21   1.262       .  A
C19         C113   1.524       .  S
In22         O24   2.225       .  S
In22         O25   2.255       .  S
In22         O33   2.256       .  S
In22         O27   2.255       .  S
In22         O29   2.243       .  S
In22         O30   2.271       .  S
In22         O31   2.252       .  S
In22         O34   2.223       .  S
C23          O29   1.258       .  A
C23          O31   1.261       .  A
C23         C646   1.472       .  S
O24          C32   1.263       .  A
O25          C32   1.265       .  A
C26          O33   1.257       .  A
C26          O27   1.256       .  A
C26         C610   1.473       .  S
C28         C115   1.517       .  S
C28          O30   1.265       .  A
C28          O34   1.259       .  A
In35         O37   2.254       .  S
In35         O38   2.261       .  S
In35         O46   2.243       .  S
In35         O40   2.263       .  S
In35         O42   2.243       .  S
In35         O43   2.235       .  S
In35         O44   2.240       .  S
In35         O47   2.248       .  S
C36          O42   1.260       .  A
C36          O44   1.261       .  A
C36         C592   1.469       .  S
O37          C45   1.259       .  A
O38          C45   1.256       .  A
C39          O46   1.259       .  A
C39          O40   1.260       .  A
C39         C576   1.477       .  S
C41          O43   1.265       .  A
C41          O47   1.261       .  A
C45         C119   1.518       .  S
In48         O50   2.242       .  S
In48         O51   2.276       .  S
In48         O59   2.251       .  S
In48         O53   2.249       .  S
In48         O55   2.252       .  S
In48         O56   2.241       .  S
In48         O57   2.230       .  S
In48         O60   2.239       .  S
C49          O55   1.259       .  A
C49          O57   1.261       .  A
C49         C594   1.468       .  S
O50          C58   1.258       .  A
O51          C58   1.260       .  A
C52          O59   1.255       .  A
C52          O53   1.258       .  A
C52         C630   1.471       .  S
C54         C117   1.512       .  S
C54          O56   1.264       .  A
C54          O60   1.262       .  A
In61         O63   2.241       .  S
In61         O64   2.280       .  S
In61         O72   2.270       .  S
In61         O66   2.262       .  S
In61         O68   2.259       .  S
In61         O69   2.254       .  S
In61         O70   2.225       .  S
In61         O73   2.248       .  S
C62          O68   1.261       .  A
C62          O70   1.259       .  A
C62         C556   1.469       .  S
O63          C71   1.258       .  A
O64          C71   1.265       .  A
C65          O72   1.258       .  A
C65          O66   1.257       .  A
C65         C538   1.480       .  S
C67          O69   1.265       .  A
C67          O73   1.260       .  A
C71         C116   1.527       .  S
In74         O76   2.289       .  S
In74         O77   2.196       .  S
In74         O85   2.238       .  S
In74         O79   2.269       .  S
In74         O81   2.260       .  S
In74         O82   2.265       .  S
In74         O83   2.230       .  S
In74         O86   2.200       .  S
C75          O81   1.259       .  A
C75          O83   1.258       .  A
C75         C558   1.471       .  S
O76          C84   1.269       .  A
O77          C84   1.258       .  A
C78          O85   1.254       .  A
C78          O79   1.261       .  A
C78         C574   1.472       .  S
C80         C114   1.517       .  S
C80          O82   1.269       .  A
C80          O86   1.259       .  A
In87         O89   2.224       .  S
In87         O90   2.265       .  S
In87         O98   2.260       .  S
In87         O92   2.257       .  S
In87         O94   2.248       .  S
In87         O95   2.261       .  S
In87         O96   2.244       .  S
In87         O99   2.238       .  S
C88          O94   1.260       .  A
C88          O96   1.260       .  A
C88         C520   1.472       .  S
O89          C97   1.261       .  A
O90          C97   1.265       .  A
C91          O98   1.255       .  A
C91          O92   1.257       .  A
C91         C612   1.474       .  S
C93          O95   1.265       .  A
C93          O99   1.258       .  A
C97         C118   1.514       .  S
In100       O102   2.261       .  S
In100       O103   2.248       .  S
In100       O111   2.245       .  S
In100       O105   2.276       .  S
In100       O107   2.244       .  S
In100       O108   2.253       .  S
In100       O109   2.252       .  S
In100       O112   2.230       .  S
C101        O107   1.258       .  A
C101        O109   1.260       .  A
C101        C522   1.471       .  S
O102        C110   1.263       .  A
O103        C110   1.260       .  A
C104        O111   1.256       .  A
C104        O105   1.261       .  A
C104        C540   1.478       .  S
C106        C120   1.513       .  S
C106        O108   1.265       .  A
C106        O112   1.259       .  A
C113        C144   1.521       .  S
C113        C484   1.528       .  S
C113        C502   1.534       .  S
C114        C127   1.519       .  S
C114        C468   1.538       .  S
C114        C504   1.530       .  S
C115        C218   1.522       .  S
C115        C450   1.530       .  S
C115        C486   1.524       .  S
C116        C209   1.519       .  S
C116        C448   1.527       .  S
C116        C466   1.536       .  S
C117        C166   1.521       .  S
C117        C412   1.528       .  S
C117        C432   1.530       .  S
C118        C157   1.516       .  S
C118        C394   1.523       .  S
C118        C430   1.522       .  S
C119        C196   1.515       .  S
C119        C378   1.531       .  S
C119        C414   1.524       .  S
C120        C179   1.512       .  S
C120        C376   1.525       .  S
C120        C396   1.533       .  S
In121       O132   2.241       .  S
In121       O126   2.276       .  S
In121       O128   2.240       .  S
In121       O129   2.271       .  S
In121       O130   2.248       .  S
In121       O133   2.233       .  S
In121       O923   2.211       .  S
In121       O924   2.257       .  S
C122        O128   1.256       .  A
C122        O130   1.261       .  A
C122        C358   1.468       .  S
O123       In921   2.221       .  S
O123        C131   1.259       .  A
O124       In921   2.262       .  S
O124        C131   1.264       .  A
C125        O132   1.255       .  A
C125        O126   1.260       .  A
C125        C340   1.478       .  S
C127        O129   1.264       .  A
C127        O133   1.262       .  A
In134       O136   2.252       .  S
In134       O137   2.251       .  S
In134       O145   2.242       .  S
In134       O139   2.273       .  S
In134       O141   2.238       .  S
In134       O143   2.255       .  S
In134       O942   2.257       .  S
In134       O946   2.247       .  S
C135        O141   1.254       .  A
C135        O143   1.260       .  A
C135        C360   1.466       .  S
O136        C144   1.260       .  A
O137        C144   1.265       .  A
C138        O145   1.252       .  A
C138        O139   1.258       .  A
C138        C324   1.471       .  S
C140        O142   1.266       .  A
C140        O146   1.259       .  A
O142       In934   2.269   1_554  S
O146       In934   2.251   1_554  S
In147       O149   2.218       .  S
In147       O150   2.265       .  S
In147       O158   2.274       .  S
In147       O152   2.256       .  S
In147       O154   2.239       .  S
In147       O156   2.241       .  S
In147       O955   2.265       .  S
In147       O959   2.243       .  S
C148        O154   1.259       .  A
C148        O156   1.262       .  A
C148        C306   1.470       .  S
O149        C157   1.264       .  A
O150        C157   1.266       .  A
C151        O158   1.258       .  A
C151        O152   1.255       .  A
C151        C286   1.477       .  S
C153        O155   1.266       .  A
C153        O159   1.257       .  A
O155       In947   2.264   1_554  S
O159       In947   2.231   1_554  S
In160       O171   2.239       .  S
In160       O165   2.266       .  S
In160       O167   2.252       .  S
In160       O168   2.266       .  S
In160       O169   2.239       .  S
In160       O172   2.247       .  S
In160       O962   2.277       .  S
In160       O963   2.252       .  S
C161        O167   1.261       .  A
C161        O169   1.262       .  A
C161        C304   1.473       .  S
O162       In960   2.237   1_554  S
O162        C170   1.256       .  A
O163       In960   2.282   1_554  S
O163        C170   1.259       .  A
C164        O171   1.259       .  A
C164        O165   1.261       .  A
C164        C322   1.477       .  S
C166        O168   1.266       .  A
C166        O172   1.260       .  A
In173       O184   2.284       .  S
In173       O178   2.237       .  S
In173       O180   2.254       .  S
In173       O181   2.235       .  S
In173       O182   2.232       .  S
In173       O185   2.240       .  S
In173       O975   2.228       .  S
In173       O976   2.267       .  S
C174        O180   1.261       .  A
C174        O182   1.259       .  A
C174        C268   1.468       .  S
O175       In973   2.233       .  S
O175        C183   1.258       .  A
O176       In973   2.278       .  S
O176        C183   1.263       .  A
C177        O184   1.257       .  A
C177        O178   1.254       .  A
C177        C250   1.478       .  S
C179        O181   1.262       .  A
C179        O185   1.261       .  A
In186       O188   2.222       .  S
In186       O189   2.277       .  S
In186       O197   2.263       .  S
In186       O191   2.255       .  S
In186       O193   2.239       .  S
In186       O195   2.236       .  S
In186       O994   2.251       .  S
In186       O998   2.241       .  S
C187        O193   1.259       .  A
C187        O195   1.262       .  A
C187        C270   1.469       .  S
O188        C196   1.257       .  A
O189        C196   1.262       .  A
C190        O197   1.258       .  A
C190        O191   1.258       .  A
C190        C342   1.477       .  S
C192        O194   1.266       .  A
C192        O198   1.260       .  A
O194       In986   2.251       .  S
O198       In986   2.233       .  S
In199       O201   2.254       .  S
In199       O202   2.254       .  S
In199       O210   2.268       .  S
In199       O204   2.229       .  S
In199       O206   2.251       .  S
In199       O208   2.238       .  S
In199      O1007   2.265       .  S
In199      O1011   2.219       .  S
C200        O206   1.260       .  A
C200        O208   1.258       .  A
C200        C232   1.469       .  S
O201        C209   1.263       .  A
O202        C209   1.261       .  A
C203        O210   1.261       .  A
C203        O204   1.256       .  A
C203        C252   1.470       .  S
C205        O207   1.264       .  A
C205        O211   1.259       .  A
O207       In999   2.276   1_554  S
O211       In999   2.222   1_554  S
In212       O223   2.273       .  S
In212       O217   2.242       .  S
In212       O219   2.244       .  S
In212       O220   2.216       .  S
In212       O221   2.236       .  S
In212       O224   2.273       .  S
In212      O1014   2.221       .  S
In212      O1015   2.276       .  S
C213        O219   1.262       .  A
C213        O221   1.261       .  A
C213        C234   1.469       .  S
O214      In1012   2.218   1_554  S
O214        C222   1.261       .  A
O215      In1012   2.274       .  S
O215        C222   1.267   1_556  A
C216        O223   1.258       .  A
C216        O217   1.255       .  A
C216        C288   1.476       .  S
C218        O220   1.257       .  A
C218        O224   1.267       .  A
C225       C1033   1.480       .  S
C225        C230   1.406       .  A
C225       C1026   1.403       .  A
C226        C227   1.395       .  A
C226       C1025   1.402       .  A
C226        H235   1.084       .  S
C227       C1028   1.401       .  A
C227        H236   1.081       .  S
C228        C231   1.481   1_545  S
C228        C229   1.407       .  A
C228       C1027   1.401       .  A
C229        C230   1.397       .  A
C229        H237   1.082       .  S
C230        H238   1.082       .  S
C231        H239   1.088       .  S
C231        C232   1.344       .  D
C232       H1040   1.085       .  S
C233       C1025   1.475       .  S
C233        H241   1.088       .  S
C233       C1034   1.344       .  D
C234        H242   1.087       .  S
C234       C1033   1.346       .  D
H240       C1032   1.084       .  S
C243        C251   1.485       .  S
C243        C244   1.405       .  A
C243        C248   1.405       .  A
C244        C245   1.405       .  A
C244        H253   1.083       .  S
C245        C246   1.408       .  A
C245        H254   1.081       .  S
C246        C249   1.482       .  S
C246        C247   1.401       .  A
C247        C248   1.391       .  A
C247        H255   1.084       .  S
C248        H256   1.082       .  S
C249        H257   1.089       .  S
C249        C250   1.345       .  D
C250        H258   1.086       .  S
C251        H259   1.086       .  S
C251        C252   1.344       .  D
C252        H260   1.086       .  S
C261        C269   1.488       .  S
C261        C262   1.404   1_455  A
C261       C1066   1.409   1_554  A
C262        C263   1.398       .  A
C262        H271   1.084   1_655  S
C263       C1064   1.409       .  A
C263        H272   1.078       .  S
C264        C267   1.479       .  S
C264        C265   1.401       .  A
C264       C1063   1.406       .  A
C265        C266   1.397   1_655  A
C265        H273   1.085       .  S
C266       C1061   1.411       .  A
C266        H274   1.078       .  S
C267        H275   1.088       .  S
C267        C268   1.342       .  D
C268       H1076   1.085       .  S
C269        H277   1.087       .  S
C269       C1070   1.345       .  D
C270        H278   1.083       .  S
C270       C1069   1.343       .  D
H276       C1068   1.084       .  S
C279        C287   1.484       .  S
C279        C280   1.403       .  A
C279        C284   1.408       .  A
C280        C281   1.398       .  A
C280        H289   1.083       .  S
C281        C282   1.408       .  A
C281        H290   1.083       .  S
C282        C285   1.488       .  S
C282        C283   1.404       .  A
C283        C284   1.401       .  A
C283        H291   1.083       .  S
C284        H292   1.083       .  S
C285        H293   1.086       .  S
C285        C286   1.345       .  D
C286        H294   1.084       .  S
C287        H295   1.087       .  S
C287        C288   1.346       .  D
C288        H296   1.085       .  S
C297        C305   1.489       .  S
C297        C298   1.404       .  A
C297       C1102   1.409       .  A
C298        C299   1.398       .  A
C298        H307   1.083       .  S
C299       C1100   1.409       .  A
C299        H308   1.080   1_655  S
C300        C303   1.487       .  S
C300        C301   1.404   1_455  A
C300       C1099   1.408   1_454  A
C301        C302   1.396       .  A
C301        H309   1.085       .  S
C302       C1097   1.408   1_554  A
C302        H310   1.080       .  S
C303        H311   1.090       .  S
C303       C1104   1.346   1_554  D
C304        H312   1.084       .  S
C304       C1103   1.345       .  D
C305        H313   1.087       .  S
C305        C306   1.344       .  D
C306       H1114   1.082       .  S
H314       C1106   1.085       .  S
C315        C323   1.488       .  S
C315        C316   1.404       .  A
C315       C1120   1.409       .  A
C316        C317   1.400       .  A
C316        H325   1.083       .  S
C317        C318   1.407       .  A
C317        H326   1.082       .  S
C318        C321   1.486       .  S
C318       C1119   1.403       .  A
C319        C320   1.397       .  A
C319       C1118   1.402   1_554  A
C319        H327   1.082       .  S
C320       C1115   1.408   1_554  A
C320        H328   1.082       .  S
C321        H329   1.087       .  S
C321        C322   1.347       .  D
C322        H330   1.084       .  S
C323        H331   1.087       .  S
C323        C324   1.343       .  D
C324        H332   1.084       .  S
C333        C341   1.486       .  S
C333        C334   1.403       .  A
C333       C1138   1.408       .  A
C334        C335   1.399       .  A
C334        H343   1.083       .  S
C335       C1136   1.404       .  A
C335        H344   1.082       .  S
C336        C339   1.491       .  S
C336        C337   1.409       .  A
C336       C1135   1.405       .  A
C337        C338   1.400       .  A
C337        H345   1.082       .  S
C338       C1133   1.407       .  A
C338        H346   1.084       .  S
C339        H347   1.085       .  S
C339       C1140   1.349       .  D
C340        H348   1.083       .  S
C340       C1139   1.348       .  D
C341        H349   1.087       .  S
C341        C342   1.345       .  D
C342        H350   1.085       .  S
C351        C359   1.487       .  S
C351        C352   1.402       .  A
C351       C1156   1.409   1_554  A
C352        C353   1.395   1_545  A
C352        H361   1.084       .  S
C353       C1154   1.409       .  A
C353        H362   1.078       .  S
C354        C357   1.487       .  S
C354        C355   1.404       .  A
C354       C1153   1.410       .  A
C355        C356   1.396   1_565  A
C355        H363   1.082       .  S
C356       C1151   1.405       .  A
C356        H364   1.084       .  S
C357        H365   1.087       .  S
C357        C358   1.343       .  D
C358       H1166   1.082       .  S
C359        H367   1.089       .  S
C359       C1160   1.344   1_554  D
C360        H368   1.085       .  S
C360       C1159   1.343       .  D
H366       C1158   1.084       .  S
C369        C377   1.493       .  S
C369        C370   1.403   1_455  A
C369        C374   1.411   1_455  A
C370        C371   1.401       .  A
C370        H379   1.082       .  S
C371        C372   1.407       .  A
C371        H380   1.080       .  S
C372        C375   1.486       .  S
C372        C373   1.402       .  A
C373        C374   1.398       .  A
C373        H381   1.084       .  S
C374        H382   1.081   1_655  S
C375        H383   1.087       .  S
C375        C376   1.349       .  D
C376        H384   1.086       .  S
C377        H385   1.086       .  S
C377        C378   1.349       .  D
C378        H386   1.086       .  S
C387        C395   1.485       .  S
C387        C388   1.401       .  A
C387        C392   1.411       .  A
C388        C389   1.395       .  A
C388        H397   1.084       .  S
C389        C390   1.408       .  A
C389        H398   1.083       .  S
C390        C393   1.484       .  S
C390        C391   1.401       .  A
C391        C392   1.401       .  A
C391        H399   1.083       .  S
C392        H400   1.082       .  S
C393        H401   1.086       .  S
C393        C394   1.345       .  D
C394        H402   1.089       .  S
C395        H403   1.088       .  S
C395        C396   1.348       .  D
C396        H404   1.084       .  S
C405        C413   1.484       .  S
C405        C406   1.404       .  A
C405        C410   1.408       .  A
C406        C407   1.402       .  A
C406        H415   1.083       .  S
C407        C408   1.406       .  A
C407        H416   1.083       .  S
C408        C411   1.479       .  S
C408        C409   1.400       .  A
C409        C410   1.394       .  A
C409        H417   1.083       .  S
C410        H418   1.083       .  S
C411        H419   1.087       .  S
C411        C412   1.346       .  D
C412        H420   1.087       .  S
C413        H421   1.087       .  S
C413        C414   1.348       .  D
C414        H422   1.087       .  S
C423        C431   1.489       .  S
C423        C424   1.402   1_455  A
C423        C428   1.413       .  A
C424        C425   1.393       .  A
C424        H433   1.083   1_655  S
C425        C426   1.405       .  A
C425        H434   1.083       .  S
C426        C429   1.482       .  S
C426        C427   1.399       .  A
C427        C428   1.402   1_655  A
C427        H435   1.082       .  S
C428        H436   1.080       .  S
C429        H437   1.087       .  S
C429        C430   1.344       .  D
C430        H438   1.090       .  S
C431        H439   1.087       .  S
C431        C432   1.346       .  D
C432        H440   1.084       .  S
C441        C449   1.490       .  S
C441        C442   1.404       .  A
C441        C446   1.411       .  A
C442        C443   1.395   1_545  A
C442        H451   1.084       .  S
C443        C444   1.406       .  A
C443        H452   1.083       .  S
C444        C447   1.488       .  S
C444        C445   1.403   1_565  A
C445        C446   1.404       .  A
C445        H453   1.083   1_545  S
C446        H454   1.080       .  S
C447        H455   1.086       .  S
C447        C448   1.348       .  D
C448        H456   1.088       .  S
C449        H457   1.089       .  S
C449        C450   1.351       .  D
C450        H458   1.085       .  S
C459        C467   1.483       .  S
C459        C460   1.405       .  A
C459        C464   1.404       .  A
C460        C461   1.403       .  A
C460        H469   1.083       .  S
C461        C462   1.407       .  A
C461        H470   1.083       .  S
C462        C465   1.484       .  S
C462        C463   1.404       .  A
C463        C464   1.400       .  A
C463        H471   1.084       .  S
C464        H472   1.084       .  S
C465        H473   1.087       .  S
C465        C466   1.352       .  D
C466        H474   1.088       .  S
C467        H475   1.083       .  S
C467        C468   1.350       .  D
C468        H476   1.088       .  S
C477        C485   1.488       .  S
C477        C478   1.403       .  A
C477        C482   1.408       .  A
C478        C479   1.401       .  A
C478        H487   1.082       .  S
C479        C480   1.409       .  A
C479        H488   1.080       .  S
C480        C483   1.484       .  S
C480        C481   1.400       .  A
C481        C482   1.394       .  A
C481        H489   1.082       .  S
C482        H490   1.080       .  S
C483        H491   1.088       .  S
C483        C484   1.347       .  D
C484        H492   1.083       .  S
C485        H493   1.085       .  S
C485        C486   1.348       .  D
C486        H494   1.085       .  S
C495        C503   1.488       .  S
C495        C496   1.405   1_565  A
C495        C500   1.407       .  A
C496        C497   1.403       .  A
C496        H505   1.086   1_545  S
C497        C498   1.410       .  A
C497        H506   1.079       .  S
C498        C501   1.489       .  S
C498        C499   1.404       .  A
C499        C500   1.397   1_545  A
C499        H507   1.086       .  S
C500        H508   1.081       .  S
C501        H509   1.090       .  S
C501        C502   1.351       .  D
C502        H510   1.085       .  S
C503        H511   1.087       .  S
C503        C504   1.350       .  D
C504        H512   1.087       .  S
C513        C521   1.483       .  S
C513        C514   1.407       .  A
C513        C518   1.402       .  A
C514        C515   1.399       .  A
C514        H523   1.083       .  S
C515        C516   1.407       .  A
C515        H524   1.082       .  S
C516        C519   1.484       .  S
C516        C517   1.403       .  A
C517        C518   1.395       .  A
C517        H525   1.084       .  S
C518        H526   1.083       .  S
C519        H527   1.087       .  S
C519        C520   1.346       .  D
C520        H528   1.084       .  S
C521        H529   1.087       .  S
C521        C522   1.345       .  D
C522        H530   1.084       .  S
C531        C539   1.493       .  S
C531        C532   1.404       .  A
C531        C536   1.409       .  A
C532        C533   1.401       .  A
C532        H541   1.082       .  S
C533        C534   1.409       .  A
C533        H542   1.082       .  S
C534        C537   1.494       .  S
C534        C535   1.406       .  A
C535        C536   1.401       .  A
C535        H543   1.082       .  S
C536        H544   1.083       .  S
C537        H545   1.087       .  S
C537        C538   1.349       .  D
C538        H546   1.084       .  S
C539        H547   1.086       .  S
C539        C540   1.347       .  D
C540        H548   1.084       .  S
C549        C557   1.485       .  S
C549        C550   1.403       .  A
C549        C554   1.409       .  A
C550        C551   1.395       .  A
C550        H559   1.082       .  S
C551        C552   1.406       .  A
C551        H560   1.082       .  S
C552        C555   1.480       .  S
C552        C553   1.402       .  A
C553        C554   1.397       .  A
C553        H561   1.083       .  S
C554        H562   1.081       .  S
C555        H563   1.088       .  S
C555        C556   1.343       .  D
C556        H564   1.085       .  S
C557        H565   1.087       .  S
C557        C558   1.345       .  D
C558        H566   1.083       .  S
C567        C575   1.486       .  S
C567        C568   1.402       .  A
C567        C572   1.408       .  A
C568        C569   1.395       .  A
C568        H577   1.083       .  S
C569        C570   1.407       .  A
C569        H578   1.083       .  S
C570        C573   1.486       .  S
C570        C571   1.404       .  A
C571        C572   1.402       .  A
C571        H579   1.082       .  S
C572        H580   1.083       .  S
C573        H581   1.086       .  S
C573        C574   1.344       .  D
C574        H582   1.084       .  S
C575        H583   1.088       .  S
C575        C576   1.345       .  D
C576        H584   1.085       .  S
C585        C593   1.482       .  S
C585        C586   1.403       .  A
C585        C590   1.409       .  A
C586        C587   1.397       .  A
C586        H595   1.082       .  S
C587        C588   1.408       .  A
C587        H596   1.082       .  S
C588        C591   1.483       .  S
C588        C589   1.401       .  A
C589        C590   1.394       .  A
C589        H597   1.084       .  S
C590        H598   1.081       .  S
C591        H599   1.088       .  S
C591        C592   1.344       .  D
C592        H600   1.084       .  S
C593        H601   1.087       .  S
C593        C594   1.342       .  D
C594        H602   1.085       .  S
C603        C611   1.485       .  S
C603        C604   1.402       .  A
C603        C608   1.408       .  A
C604        C605   1.398       .  A
C604        H613   1.083       .  S
C605        C606   1.409       .  A
C605        H614   1.081       .  S
C606        C609   1.487       .  S
C606        C607   1.404       .  A
C607        C608   1.398       .  A
C607        H615   1.083       .  S
C608        H616   1.083       .  S
C609        H617   1.087       .  S
C609        C610   1.345       .  D
C610        H618   1.084       .  S
C611        H619   1.086       .  S
C611        C612   1.344       .  D
C612        H620   1.084       .  S
C621        C629   1.485       .  S
C621        C622   1.402       .  A
C621        C626   1.410       .  A
C622        C623   1.395       .  A
C622        H631   1.083       .  S
C623        C624   1.406       .  A
C623        H632   1.082       .  S
C624        C627   1.481       .  S
C624        C625   1.401       .  A
C625        C626   1.400       .  A
C625        H633   1.084       .  S
C626        H634   1.081       .  S
C627        H635   1.087       .  S
C627        C628   1.341       .  D
C628        H636   1.087       .  S
C629        H637   1.088       .  S
C629        C630   1.343       .  D
C630        H638   1.085       .  S
C639        C647   1.482       .  S
C639        C640   1.402       .  A
C639        C644   1.407       .  A
C640        C641   1.397       .  A
C640        H649   1.085       .  S
C641        C642   1.409       .  A
C641        H650   1.079       .  S
C642        C645   1.489       .  S
C642        C643   1.404       .  A
C643        C644   1.397       .  A
C643        H651   1.085       .  S
C644        H652   1.080       .  S
C645        H653   1.089       .  S
C645        C646   1.346       .  D
C646        H654   1.083       .  S
C647        H655   1.088       .  S
C647        C648   1.343       .  D
C648        H656   1.084       .  S
C657        C665   1.483       .  S
C657        C658   1.401   1_565  A
C657        C662   1.409   1_565  A
C658        C659   1.392       .  A
C658        H667   1.085   1_545  S
C659        C660   1.408       .  A
C659        H668   1.081       .  S
C660        C663   1.486       .  S
C660        C661   1.404       .  A
C661        C662   1.403       .  A
C661        H669   1.085       .  S
C662        H670   1.080   1_545  S
C663        H671   1.087       .  S
C663        C664   1.346       .  D
C664        H672   1.088       .  S
C665        H673   1.089       .  S
C665        C666   1.349       .  D
C666        H674   1.084       .  S
C675        C683   1.485       .  S
C675        C676   1.400       .  A
C675        C680   1.410       .  A
C676        C677   1.393       .  A
C676        H685   1.085       .  S
C677        C678   1.410       .  A
C677        H686   1.081       .  S
C678        C681   1.491       .  S
C678        C679   1.404       .  A
C679        C680   1.404       .  A
C679        H687   1.084       .  S
C680        H688   1.081       .  S
C681        H689   1.088       .  S
C681        C682   1.347       .  D
C682        H690   1.084       .  S
C683        H691   1.089       .  S
C683        C684   1.347       .  D
C684        H692   1.086       .  S
C693        C701   1.492       .  S
C693        C694   1.404       .  A
C693        C698   1.411       .  A
C694        C695   1.402       .  A
C694        H703   1.081       .  S
C695        C696   1.407       .  A
C695        H704   1.084       .  S
C696        C699   1.481       .  S
C696        C697   1.399       .  A
C697        C698   1.395       .  A
C697        H705   1.081       .  S
C698        H706   1.082       .  S
C699        H707   1.086       .  S
C699        C700   1.346       .  D
C700        H708   1.087       .  S
C701        H709   1.086       .  S
C701        C702   1.348       .  D
C702        H710   1.085       .  S
C711        C719   1.488       .  S
C711        C712   1.403   1_565  A
C711        C716   1.407       .  A
C712        C713   1.404       .  A
C712        H721   1.083   1_545  S
C713        C714   1.411       .  A
C713        H722   1.082       .  S
C714        C717   1.490       .  S
C714        C715   1.402       .  A
C715        C716   1.397   1_545  A
C715        H723   1.083       .  S
C716        H724   1.084       .  S
C717        H725   1.087       .  S
C717        C718   1.347       .  D
C718        H726   1.086       .  S
C719        H727   1.086       .  S
C719        C720   1.349       .  D
C720        H728   1.087       .  S
C729        C737   1.485       .  S
C729        C730   1.400   1_455  A
C729        C734   1.407   1_455  A
C730        C731   1.397       .  A
C730        H739   1.082       .  S
C731        C732   1.411       .  A
C731        H740   1.083       .  S
C732        C735   1.495       .  S
C732        C733   1.405       .  A
C733        C734   1.404       .  A
C733        H741   1.078       .  S
C734        H742   1.083   1_655  S
C735        H743   1.085       .  S
C735        C736   1.350       .  D
C736        H744   1.086       .  S
C737        H745   1.087       .  S
C737        C738   1.348       .  D
C738        H746   1.088       .  S
C747        C755   1.489       .  S
C747        C748   1.403       .  A
C747        C752   1.411       .  A
C748        C749   1.402       .  A
C748        H757   1.081       .  S
C749        C750   1.407       .  A
C749        H758   1.084       .  S
C750        C753   1.481       .  S
C750        C751   1.399       .  A
C751        C752   1.394       .  A
C751        H759   1.082       .  S
C752        H760   1.082       .  S
C753        H761   1.082       .  S
C753        C754   1.346       .  D
C754        H762   1.087       .  S
C755        H763   1.085       .  S
C755        C756   1.346       .  D
C756        H764   1.086       .  S
C765        C773   1.490       .  S
C765        C766   1.402       .  A
C765        C770   1.409       .  A
C766        C767   1.400       .  A
C766        H775   1.083       .  S
C767        C768   1.409       .  A
C767        H776   1.082       .  S
C768        C771   1.490       .  S
C768        C769   1.403       .  A
C769        C770   1.400       .  A
C769        H777   1.084       .  S
C770        H778   1.081       .  S
C771        H779   1.085       .  S
C771        C772   1.349       .  D
C772        H780   1.086       .  S
C773        H781   1.086       .  S
C773        C774   1.348       .  D
C774        H782   1.086       .  S
C783        C791   1.488       .  S
C783        C784   1.406       .  A
C783        C788   1.403       .  A
C784        C785   1.400   1_655  A
C784        H793   1.082       .  S
C785        C786   1.411       .  A
C785        H794   1.081       .  S
C786        C789   1.494       .  S
C786        C787   1.404       .  A
C787        C788   1.400   1_455  A
C787        H795   1.084       .  S
C788        H796   1.083       .  S
C789        H797   1.088       .  S
C789        C790   1.349       .  D
C790        H798   1.086       .  S
C791        H799   1.082       .  S
C791        C792   1.350       .  D
C792        H800   1.084       .  S
C801        C858   1.524       .  S
C801        C970   1.521       .  S
C801       C1574   1.531       .  S
C801       C1590   1.534       .  S
C802        C893   1.523       .  S
C802        C953   1.523       .  S
C802       C1554   1.530       .  S
C802       C1592   1.536       .  S
C803        C841   1.512       .  S
C803        C992   1.520       .  S
C803       C1538   1.531       .  S
C803       C1572   1.530       .  S
C804        C910   1.516       .  S
C804        C983   1.514       .  S
C804       C1536   1.528       .  S
C804       C1556   1.532       .  S
C805        C815   1.523       .  S
C805        C940   1.519       .  S
C805       C1500   1.530       .  S
C805       C1518   1.525       .  S
C806        C884   1.517       .  S
C806        C931   1.517       .  S
C806       C1482   1.524       .  S
C806       C1520   1.524       .  S
C807        C832   1.519       .  S
C807       C1022   1.515       .  S
C807       C1464   1.526       .  S
C807       C1502   1.529       .  S
C808        C867   1.519       .  S
C808       C1005   1.518       .  S
C808       C1466   1.535       .  S
C808       C1484   1.525       .  S
In809       O811   2.294       .  S
In809       O812   2.261       .  S
In809       O820   2.245       .  S
In809       O814   2.258       .  S
In809       O816   2.251       .  S
In809       O817   2.265       .  S
In809       O818   2.245       .  S
In809       O821   2.248       .  S
C810        O816   1.260       .  A
C810        O818   1.262       .  A
C810       C1448   1.473       .  S
O811        C819   1.260       .  A
O812        C819   1.258       .  A
C813        O820   1.260       .  A
C813        O814   1.259       .  A
C813       C1428   1.475       .  S
C815        O817   1.264       .  A
C815        O821   1.260       .  A
C819        C913   1.533       .  S
In822       O824   2.228       .  S
In822       O825   2.269       .  S
In822       O833   2.261       .  S
In822       O827   2.259       .  S
In822       O829   2.251       .  S
In822       O830   2.280       .  S
In822       O831   2.243       .  S
In822       O834   2.223       .  S
C823        O829   1.258       .  A
C823        O831   1.259       .  A
C823       C1446   1.471       .  S
O824        C832   1.261       .  A
O825        C832   1.266       .  A
C826        O833   1.258       .  A
C826        O827   1.256       .  A
C826       C1410   1.476       .  S
C828        C915   1.521       .  S
C828        O830   1.266       .  A
C828        O834   1.260       .  A
In835       O837   2.225       .  S
In835       O838   2.265       .  S
In835       O846   2.259       .  S
In835       O840   2.249       .  S
In835       O842   2.253       .  S
In835       O843   2.225       .  S
In835       O844   2.220       .  S
In835       O847   2.269       .  S
C836        O842   1.260       .  A
C836        O844   1.259       .  A
C836       C1392   1.467       .  S
O837        C845   1.256       .  A
O838        C845   1.262       .  A
C839        O846   1.259       .  A
C839        O840   1.256       .  A
C839       C1376   1.472       .  S
C841        O843   1.262       .  A
C841        O847   1.261       .  A
C845        C919   1.514       .  S
In848       O850   2.239       .  S
In848       O851   2.282       .  S
In848       O859   2.238       .  S
In848       O853   2.270       .  S
In848       O855   2.266       .  S
In848       O856   2.242       .  S
In848       O857   2.229       .  S
In848       O860   2.240       .  S
C849        O855   1.259       .  A
C849        O857   1.258       .  A
C849       C1394   1.470       .  S
O850        C858   1.260       .  A
O851        C858   1.263       .  A
C852        O859   1.253       .  A
C852        O853   1.260       .  A
C852       C1430   1.471       .  S
C854        C917   1.513       .  S
C854        O856   1.264       .  A
C854        O860   1.261       .  A
In861       O863   2.245       .  S
In861       O864   2.254       .  S
In861       O872   2.275       .  S
In861       O866   2.246       .  S
In861       O868   2.256       .  S
In861       O869   2.245       .  S
In861       O870   2.231       .  S
In861       O873   2.242       .  S
C862        O868   1.258       .  A
C862        O870   1.259       .  A
C862       C1356   1.467       .  S
O863        C871   1.259       .  A
O864        C871   1.262       .  A
C865        O872   1.259       .  A
C865        O866   1.254       .  A
C865       C1338   1.474       .  S
C867        O869   1.265       .  A
C867        O873   1.263       .  A
C871        C916   1.519       .  S
In874       O876   2.253       .  S
In874       O877   2.248       .  S
In874       O885   2.288       .  S
In874       O879   2.225       .  S
In874       O881   2.235       .  S
In874       O882   2.248       .  S
In874       O883   2.246       .  S
In874       O886   2.224       .  S
C875        O881   1.256       .  A
C875        O883   1.262       .  A
C875       C1358   1.466       .  S
O876        C884   1.264       .  A
O877        C884   1.259       .  A
C878        O885   1.260       .  A
C878        O879   1.254       .  A
C878       C1374   1.475       .  S
C880        C914   1.519       .  S
C880        O882   1.266       .  A
C880        O886   1.264       .  A
In887       O889   2.247       .  S
In887       O890   2.246       .  S
In887       O898   2.283       .  S
In887       O892   2.237       .  S
In887       O894   2.263       .  S
In887       O895   2.266       .  S
In887       O896   2.228       .  S
In887       O899   2.232       .  S
C888        O894   1.258       .  A
C888        O896   1.257       .  A
C888       C1320   1.468       .  S
O889        C897   1.263       .  A
O890        C897   1.263       .  A
C891        O898   1.258       .  A
C891        O892   1.254       .  A
C891       C1412   1.476       .  S
C893        O895   1.266       .  A
C893        O899   1.258       .  A
C897        C918   1.518       .  S
In900       O902   2.225       .  S
In900       O903   2.283       .  S
In900       O911   2.243       .  S
In900       O905   2.279       .  S
In900       O907   2.240       .  S
In900       O908   2.265       .  S
In900       O909   2.238       .  S
In900       O912   2.230       .  S
C901        O907   1.258       .  A
C901        O909   1.260       .  A
C901       C1322   1.467       .  S
O902        C910   1.258       .  A
O903        C910   1.264       .  A
C904        O911   1.253       .  A
C904        O905   1.259       .  A
C904       C1340   1.475       .  S
C906        C920   1.517       .  S
C906        O908   1.267       .  A
C906        O912   1.259       .  A
C913        C944   1.529       .  S
C913       C1284   1.528       .  S
C913       C1302   1.539       .  S
C914        C927   1.519       .  S
C914       C1268   1.543       .  S
C914       C1304   1.531       .  S
C915       C1018   1.526       .  S
C915       C1250   1.531       .  S
C915       C1286   1.527       .  S
C916       C1009   1.516       .  S
C916       C1248   1.527       .  S
C916       C1266   1.530       .  S
C917        C966   1.515       .  S
C917       C1212   1.527       .  S
C917       C1232   1.524       .  S
C918        C957   1.518       .  S
C918       C1194   1.527       .  S
C918       C1230   1.521       .  S
C919        C996   1.507       .  S
C919       C1178   1.521       .  S
C919       C1214   1.521       .  S
C920        C979   1.518       .  S
C920       C1176   1.522       .  S
C920       C1196   1.531       .  S
In921       O932   2.254       .  S
In921       O926   2.273       .  S
In921       O928   2.242       .  S
In921       O929   2.276   1_554  S
In921       O930   2.254       .  S
In921       O933   2.230   1_554  S
C922        O928   1.258       .  A
C922        O930   1.261       .  A
C922       C1158   1.471       .  S
O923        C931   1.260       .  A
O924        C931   1.266       .  A
C925        O932   1.256       .  A
C925        O926   1.259       .  A
C925       C1140   1.479       .  S
C927        O929   1.265       .  A
C927        O933   1.262       .  A
In934       O936   2.228       .  S
In934       O937   2.292       .  S
In934       O945   2.254   1_556  S
In934       O939   2.258       .  S
In934       O941   2.246       .  S
In934       O943   2.229   1_556  S
C935        O941   1.259       .  A
C935        O943   1.260   1_556  A
C935       C1160   1.470       .  S
O936        C944   1.257       .  A
O937        C944   1.265       .  A
C938        O945   1.256   1_556  A
C938        O939   1.259       .  A
C938       C1124   1.474   1_556  S
C940        O942   1.264       .  A
C940        O946   1.262       .  A
In947       O949   2.205       .  S
In947       O950   2.272       .  S
In947       O958   2.263   1_556  S
In947       O952   2.246       .  S
In947       O954   2.250   1_556  S
In947       O956   2.239       .  S
C948        O954   1.259       .  A
C948        O956   1.261   1_554  A
C948       C1106   1.472       .  S
O949        C957   1.263       .  A
O950        C957   1.267       .  A
C951        O958   1.258   1_556  A
C951        O952   1.254       .  A
C951       C1086   1.471       .  S
C953        O955   1.268       .  A
C953        O959   1.257       .  A
In960       O971   2.252   1_556  S
In960       O965   2.255       .  S
In960       O967   2.257       .  S
In960       O968   2.238       .  S
In960       O969   2.231   1_556  S
In960       O972   2.247       .  S
C961        O967   1.261       .  A
C961        O969   1.260   1_556  A
C961       C1104   1.471       .  S
O962        C970   1.258       .  A
O963        C970   1.258       .  A
C964        O971   1.256   1_556  A
C964        O965   1.254       .  A
C964       C1122   1.470       .  S
C966        O968   1.263       .  A
C966        O972   1.264       .  A
In973       O984   2.267       .  S
In973       O978   2.238   1_554  S
In973       O980   2.243       .  S
In973       O981   2.259   1_554  S
In973       O982   2.245   1_554  S
In973       O985   2.231   1_554  S
C974        O980   1.258       .  A
C974        O982   1.262   1_554  A
C974       C1068   1.470       .  S
O975        C983   1.261       .  A
O976        C983   1.263       .  A
C977        O984   1.258       .  A
C977        O978   1.255   1_554  A
C977       C1050   1.474   1_554  S
C979        O981   1.264       .  A
C979        O985   1.261       .  A
In986       O988   2.242   1_554  S
In986       O989   2.240   1_554  S
In986       O997   2.260       .  S
In986       O991   2.240       .  S
In986       O993   2.245   1_554  S
In986       O995   2.245       .  S
C987        O993   1.258   1_554  A
C987        O995   1.260       .  A
C987       C1070   1.470       .  S
O988        C996   1.260       .  A
O989        C996   1.260       .  A
C990        O997   1.258       .  A
C990        O991   1.259       .  A
C990       C1142   1.473       .  S
C992        O994   1.266       .  A
C992        O998   1.260       .  A
In999      O1001   2.244       .  S
In999      O1002   2.256       .  S
In999      O1010   2.266       .  S
In999      O1004   2.234       .  S
In999      O1006   2.244       .  S
In999      O1008   2.239   1_556  S
C1000      O1006   1.260       .  A
C1000      O1008   1.260   1_556  A
C1000      C1032   1.467       .  S
O1001      C1009   1.262       .  A
O1002      C1009   1.261       .  A
C1003      O1010   1.261       .  A
C1003      O1004   1.256       .  A
C1003      C1052   1.470       .  S
C1005      O1007   1.264       .  A
C1005      O1011   1.260       .  A
In1012     O1023   2.267       .  S
In1012     O1017   2.243       .  S
In1012     O1019   2.242       .  S
In1012     O1020   2.231       .  S
In1012     O1021   2.238       .  S
In1012     O1024   2.282       .  S
C1013      O1019   1.260       .  A
C1013      O1021   1.261       .  A
C1013      C1034   1.467       .  S
O1014      C1022   1.261       .  A
O1015      C1022   1.265       .  A
C1016      O1023   1.256       .  A
C1016      O1017   1.255       .  A
C1016      C1088   1.474       .  S
C1018      O1020   1.258       .  A
C1018      O1024   1.266       .  A
C1025      C1030   1.404       .  A
C1026      C1027   1.396       .  A
C1026      H1035   1.084       .  S
C1027      H1036   1.083       .  S
C1028      C1031   1.479   1_545  S
C1028      C1029   1.407       .  A
C1029      C1030   1.397       .  A
C1029      H1037   1.083       .  S
C1030      H1038   1.082       .  S
C1031      H1039   1.086       .  S
C1031      C1032   1.344       .  D
C1033      H1041   1.089       .  S
C1034      H1042   1.087       .  S
C1043      C1051   1.484       .  S
C1043      C1044   1.403       .  A
C1043      C1048   1.406       .  A
C1044      C1045   1.401       .  A
C1044      H1053   1.083       .  S
C1045      C1046   1.408       .  A
C1045      H1054   1.081       .  S
C1046      C1049   1.482       .  S
C1046      C1047   1.402       .  A
C1047      C1048   1.394       .  A
C1047      H1055   1.084       .  S
C1048      H1056   1.082       .  S
C1049      H1057   1.088       .  S
C1049      C1050   1.345       .  D
C1050      H1058   1.085   1_556  S
C1051      H1059   1.086       .  S
C1051      C1052   1.344       .  D
C1052      H1060   1.085       .  S
C1061      C1069   1.487       .  S
C1061      C1062   1.404   1_455  A
C1062      C1063   1.395       .  A
C1062      H1071   1.085   1_655  S
C1063      H1072   1.081       .  S
C1064      C1067   1.487       .  S
C1064      C1065   1.402   1_554  A
C1065      C1066   1.395   1_655  A
C1065      H1073   1.086       .  S
C1066      H1074   1.077       .  S
C1067      H1075   1.089   1_554  S
C1067      C1068   1.344       .  D
C1069      H1077   1.089       .  S
C1070      H1078   1.081   1_554  S
C1079      C1087   1.483       .  S
C1079      C1080   1.401       .  A
C1079      C1084   1.408   1_556  A
C1080      C1081   1.396       .  A
C1080      H1089   1.083       .  S
C1081      C1082   1.408       .  A
C1081      H1090   1.082       .  S
C1082      C1085   1.486   1_556  S
C1082      C1083   1.404   1_556  A
C1083      C1084   1.400       .  A
C1083      H1091   1.083       .  S
C1084      H1092   1.082       .  S
C1085      H1093   1.087       .  S
C1085      C1086   1.344   1_554  D
C1086      H1094   1.084       .  S
C1087      H1095   1.087       .  S
C1087      C1088   1.344       .  D
C1088      H1096   1.085   1_556  S
C1097      C1105   1.485       .  S
C1097      C1098   1.403       .  A
C1098      C1099   1.397       .  A
C1098      H1107   1.083       .  S
C1099      H1108   1.081   1_655  S
C1100      C1103   1.488   1_655  S
C1100      C1101   1.403       .  A
C1101      C1102   1.396       .  A
C1101      H1109   1.083       .  S
C1102      H1110   1.080       .  S
C1103      H1111   1.089       .  S
C1104      H1112   1.085       .  S
C1105      H1113   1.088       .  S
C1105      C1106   1.343   1_556  D
C1115      C1123   1.485       .  S
C1115      C1116   1.402       .  A
C1116      C1117   1.397       .  A
C1116      H1125   1.081       .  S
C1117      C1118   1.408       .  A
C1117      H1126   1.081       .  S
C1118      C1121   1.484   1_556  S
C1119      C1120   1.397       .  A
C1119      H1127   1.083       .  S
C1120      H1128   1.081       .  S
C1121      H1129   1.087       .  S
C1121      C1122   1.343   1_554  D
C1122      H1130   1.084       .  S
C1123      H1131   1.087       .  S
C1123      C1124   1.344   1_556  D
C1124      H1132   1.084       .  S
C1133      C1141   1.484       .  S
C1133      C1134   1.402       .  A
C1134      C1135   1.398       .  A
C1134      H1143   1.083       .  S
C1135      H1144   1.085       .  S
C1136      C1139   1.487       .  S
C1136      C1137   1.407       .  A
C1137      C1138   1.401       .  A
C1137      H1145   1.082       .  S
C1138      H1146   1.082       .  S
C1139      H1147   1.086       .  S
C1140      H1148   1.081       .  S
C1141      H1149   1.088       .  S
C1141      C1142   1.343       .  D
C1142      H1150   1.086       .  S
C1151      C1159   1.480       .  S
C1151      C1152   1.401       .  A
C1152      C1153   1.395   1_545  A
C1152      H1161   1.082       .  S
C1153      H1162   1.081       .  S
C1154      C1157   1.490       .  S
C1154      C1155   1.404   1_554  A
C1155      C1156   1.399   1_565  A
C1155      H1163   1.084       .  S
C1156      H1164   1.079       .  S
C1157      H1165   1.089   1_554  S
C1157      C1158   1.345       .  D
C1159      H1167   1.087       .  S
C1160      H1168   1.083       .  S
C1169      C1177   1.480       .  S
C1169      C1170   1.400   1_455  A
C1169      C1174   1.409       .  A
C1170      C1171   1.397       .  A
C1170      H1179   1.083   1_655  S
C1171      C1172   1.408       .  A
C1171      H1180   1.081       .  S
C1172      C1175   1.477       .  S
C1172      C1173   1.400       .  A
C1173      C1174   1.392   1_655  A
C1173      H1181   1.084       .  S
C1174      H1182   1.083       .  S
C1175      H1183   1.088       .  S
C1175      C1176   1.345       .  D
C1176      H1184   1.086       .  S
C1177      H1185   1.088       .  S
C1177      C1178   1.343       .  D
C1178      H1186   1.089       .  S
C1187      C1195   1.490       .  S
C1187      C1188   1.403       .  A
C1187      C1192   1.411       .  A
C1188      C1189   1.396       .  A
C1188      H1197   1.084       .  S
C1189      C1190   1.406       .  A
C1189      H1198   1.083       .  S
C1190      C1193   1.487       .  S
C1190      C1191   1.401       .  A
C1191      C1192   1.403       .  A
C1191      H1199   1.082       .  S
C1192      H1200   1.079       .  S
C1193      H1201   1.087       .  S
C1193      C1194   1.345       .  D
C1194      H1202   1.089       .  S
C1195      H1203   1.087       .  S
C1195      C1196   1.350       .  D
C1196      H1204   1.084       .  S
C1205      C1213   1.479       .  S
C1205      C1206   1.402       .  A
C1205      C1210   1.405       .  A
C1206      C1207   1.403       .  A
C1206      H1215   1.082       .  S
C1207      C1208   1.410       .  A
C1207      H1216   1.083       .  S
C1208      C1211   1.482       .  S
C1208      C1209   1.400       .  A
C1209      C1210   1.392       .  A
C1209      H1217   1.083       .  S
C1210      H1218   1.084       .  S
C1211      H1219   1.087       .  S
C1211      C1212   1.345       .  D
C1212      H1220   1.086       .  S
C1213      H1221   1.086       .  S
C1213      C1214   1.346       .  D
C1214      H1222   1.088       .  S
C1223      C1231   1.482       .  S
C1223      C1224   1.399   1_455  A
C1223      C1228   1.411       .  A
C1224      C1225   1.391       .  A
C1224      H1233   1.084   1_655  S
C1225      C1226   1.407       .  A
C1225      H1234   1.083       .  S
C1226      C1229   1.484       .  S
C1226      C1227   1.401       .  A
C1227      C1228   1.402   1_655  A
C1227      H1235   1.081       .  S
C1228      H1236   1.082       .  S
C1229      H1237   1.085       .  S
C1229      C1230   1.344       .  D
C1230      H1238   1.088       .  S
C1231      H1239   1.088       .  S
C1231      C1232   1.343       .  D
C1232      H1240   1.086       .  S
C1241      C1249   1.490       .  S
C1241      C1242   1.403       .  A
C1241      C1246   1.412       .  A
C1242      C1243   1.392   1_545  A
C1242      H1251   1.085       .  S
C1243      C1244   1.404       .  A
C1243      H1252   1.082       .  S
C1244      C1247   1.486       .  S
C1244      C1245   1.404   1_565  A
C1245      C1246   1.407       .  A
C1245      H1253   1.084   1_545  S
C1246      H1254   1.079       .  S
C1247      H1255   1.087       .  S
C1247      C1248   1.348       .  D
C1248      H1256   1.089       .  S
C1249      H1257   1.088       .  S
C1249      C1250   1.350       .  D
C1250      H1258   1.085       .  S
C1259      C1267   1.496       .  S
C1259      C1260   1.410       .  A
C1259      C1264   1.407       .  A
C1260      C1261   1.406       .  A
C1260      H1269   1.081       .  S
C1261      C1262   1.409       .  A
C1261      H1270   1.081       .  S
C1262      C1265   1.488       .  S
C1262      C1263   1.401       .  A
C1263      C1264   1.397       .  A
C1263      H1271   1.084       .  S
C1264      H1272   1.083       .  S
C1265      H1273   1.088       .  S
C1265      C1266   1.350       .  D
C1266      H1274   1.087       .  S
C1267      H1275   1.083       .  S
C1267      C1268   1.359       .  D
C1268      H1276   1.083       .  S
C1277      C1285   1.489       .  S
C1277      C1278   1.404       .  A
C1277      C1282   1.407       .  A
C1278      C1279   1.404       .  A
C1278      H1287   1.079       .  S
C1279      C1280   1.408       .  A
C1279      H1288   1.083       .  S
C1280      C1283   1.480       .  S
C1280      C1281   1.400       .  A
C1281      C1282   1.393       .  A
C1281      H1289   1.083       .  S
C1282      H1290   1.082       .  S
C1283      H1291   1.086       .  S
C1283      C1284   1.346       .  D
C1284      H1292   1.088       .  S
C1285      H1293   1.084       .  S
C1285      C1286   1.349       .  D
C1286      H1294   1.086       .  S
C1295      C1303   1.492       .  S
C1295      C1296   1.406       .  A
C1295      C1300   1.406       .  A
C1296      C1297   1.405   1_565  A
C1296      H1305   1.083       .  S
C1297      C1298   1.408       .  A
C1297      H1306   1.082       .  S
C1298      C1301   1.493       .  S
C1298      C1299   1.406       .  A
C1299      C1300   1.399   1_545  A
C1299      H1307   1.083       .  S
C1300      H1308   1.083       .  S
C1301      H1309   1.087       .  S
C1301      C1302   1.355       .  D
C1302      H1310   1.085       .  S
C1303      H1311   1.086       .  S
C1303      C1304   1.351       .  D
C1304      H1312   1.087       .  S
C1313      C1321   1.481       .  S
C1313      C1314   1.407       .  A
C1313      C1318   1.402       .  A
C1314      C1315   1.397       .  A
C1314      H1323   1.082       .  S
C1315      C1316   1.406       .  A
C1315      H1324   1.082       .  S
C1316      C1319   1.480       .  S
C1316      C1317   1.402       .  A
C1317      C1318   1.394       .  A
C1317      H1325   1.084       .  S
C1318      H1326   1.083       .  S
C1319      H1327   1.087       .  S
C1319      C1320   1.345       .  D
C1320      H1328   1.084       .  S
C1321      H1329   1.088       .  S
C1321      C1322   1.344       .  D
C1322      H1330   1.084       .  S
C1331      C1339   1.495       .  S
C1331      C1332   1.406       .  A
C1331      C1336   1.411       .  A
C1332      C1333   1.400       .  A
C1332      H1341   1.083       .  S
C1333      C1334   1.407       .  A
C1333      H1342   1.083       .  S
C1334      C1337   1.489       .  S
C1334      C1335   1.402       .  A
C1335      C1336   1.398       .  A
C1335      H1343   1.083       .  S
C1336      H1344   1.079       .  S
C1337      H1345   1.087       .  S
C1337      C1338   1.345       .  D
C1338      H1346   1.085       .  S
C1339      H1347   1.088       .  S
C1339      C1340   1.347       .  D
C1340      H1348   1.083       .  S
C1349      C1357   1.485       .  S
C1349      C1350   1.403       .  A
C1349      C1354   1.409       .  A
C1350      C1351   1.395       .  A
C1350      H1359   1.085       .  S
C1351      C1352   1.406       .  A
C1351      H1360   1.081       .  S
C1352      C1355   1.476       .  S
C1352      C1353   1.400       .  A
C1353      C1354   1.396       .  A
C1353      H1361   1.083       .  S
C1354      H1362   1.080       .  S
C1355      H1363   1.087       .  S
C1355      C1356   1.340       .  D
C1356      H1364   1.085       .  S
C1357      H1365   1.088       .  S
C1357      C1358   1.343       .  D
C1358      H1366   1.083       .  S
C1367      C1375   1.488       .  S
C1367      C1368   1.406       .  A
C1367      C1372   1.408       .  A
C1368      C1369   1.402       .  A
C1368      H1377   1.085       .  S
C1369      C1370   1.405       .  A
C1369      H1378   1.082       .  S
C1370      C1373   1.477       .  S
C1370      C1371   1.400       .  A
C1371      C1372   1.394       .  A
C1371      H1379   1.084       .  S
C1372      H1380   1.080       .  S
C1373      H1381   1.088       .  S
C1373      C1374   1.344       .  D
C1374      H1382   1.086       .  S
C1375      H1383   1.087       .  S
C1375      C1376   1.345       .  D
C1376      H1384   1.085       .  S
C1385      C1393   1.485       .  S
C1385      C1386   1.403       .  A
C1385      C1390   1.409       .  A
C1386      C1387   1.393       .  A
C1386      H1395   1.084       .  S
C1387      C1388   1.407       .  A
C1387      H1396   1.081       .  S
C1388      C1391   1.480       .  S
C1388      C1389   1.402       .  A
C1389      C1390   1.397       .  A
C1389      H1397   1.085       .  S
C1390      H1398   1.080       .  S
C1391      H1399   1.090       .  S
C1391      C1392   1.343       .  D
C1392      H1400   1.086       .  S
C1393      H1401   1.088       .  S
C1393      C1394   1.344       .  D
C1394      H1402   1.083       .  S
C1403      C1411   1.484       .  S
C1403      C1404   1.404       .  A
C1403      C1408   1.407       .  A
C1404      C1405   1.398       .  A
C1404      H1413   1.083       .  S
C1405      C1406   1.407       .  A
C1405      H1414   1.083       .  S
C1406      C1409   1.487       .  S
C1406      C1407   1.404       .  A
C1407      C1408   1.401       .  A
C1407      H1415   1.083       .  S
C1408      H1416   1.083       .  S
C1409      H1417   1.086       .  S
C1409      C1410   1.345       .  D
C1410      H1418   1.085       .  S
C1411      H1419   1.088       .  S
C1411      C1412   1.346       .  D
C1412      H1420   1.085       .  S
C1421      C1429   1.485       .  S
C1421      C1422   1.404       .  A
C1421      C1426   1.408       .  A
C1422      C1423   1.401       .  A
C1422      H1431   1.082       .  S
C1423      C1424   1.408       .  A
C1423      H1432   1.083       .  S
C1424      C1427   1.483       .  S
C1424      C1425   1.401       .  A
C1425      C1426   1.395       .  A
C1425      H1433   1.082       .  S
C1426      H1434   1.083       .  S
C1427      H1435   1.087       .  S
C1427      C1428   1.343       .  D
C1428      H1436   1.085       .  S
C1429      H1437   1.087       .  S
C1429      C1430   1.343       .  D
C1430      H1438   1.085       .  S
C1439      C1447   1.487       .  S
C1439      C1440   1.403       .  A
C1439      C1444   1.408       .  A
C1440      C1441   1.398       .  A
C1440      H1449   1.084       .  S
C1441      C1442   1.409       .  A
C1441      H1450   1.079       .  S
C1442      C1445   1.489       .  S
C1442      C1443   1.404       .  A
C1443      C1444   1.396       .  A
C1443      H1451   1.084       .  S
C1444      H1452   1.079       .  S
C1445      H1453   1.088       .  S
C1445      C1446   1.346       .  D
C1446      H1454   1.082       .  S
C1447      H1455   1.087       .  S
C1447      C1448   1.345       .  D
C1448      H1456   1.083       .  S
C1457      C1465   1.483       .  S
C1457      C1458   1.402   1_565  A
C1457      C1462   1.408   1_565  A
C1458      C1459   1.394       .  A
C1458      H1467   1.085   1_545  S
C1459      C1460   1.409       .  A
C1459      H1468   1.081       .  S
C1460      C1463   1.487       .  S
C1460      C1461   1.404       .  A
C1461      C1462   1.402       .  A
C1461      H1469   1.084       .  S
C1462      H1470   1.081   1_545  S
C1463      H1471   1.087       .  S
C1463      C1464   1.346       .  D
C1464      H1472   1.087       .  S
C1465      H1473   1.089       .  S
C1465      C1466   1.350       .  D
C1466      H1474   1.085       .  S
C1475      C1483   1.488       .  S
C1475      C1476   1.403       .  A
C1475      C1480   1.411       .  A
C1476      C1477   1.394       .  A
C1476      H1485   1.082       .  S
C1477      C1478   1.406       .  A
C1477      H1486   1.083       .  S
C1478      C1481   1.484       .  S
C1478      C1479   1.402       .  A
C1479      C1480   1.401       .  A
C1479      H1487   1.082       .  S
C1480      H1488   1.080       .  S
C1481      H1489   1.087       .  S
C1481      C1482   1.347       .  D
C1482      H1490   1.088       .  S
C1483      H1491   1.087       .  S
C1483      C1484   1.348       .  D
C1484      H1492   1.083       .  S
C1493      C1501   1.492       .  S
C1493      C1494   1.405       .  A
C1493      C1498   1.409       .  A
C1494      C1495   1.403       .  A
C1494      H1503   1.081       .  S
C1495      C1496   1.408       .  A
C1495      H1504   1.083       .  S
C1496      C1499   1.483       .  S
C1496      C1497   1.400       .  A
C1497      C1498   1.395       .  A
C1497      H1505   1.083       .  S
C1498      H1506   1.083       .  S
C1499      H1507   1.088       .  S
C1499      C1500   1.347       .  D
C1500      H1508   1.087       .  S
C1501      H1509   1.086       .  S
C1501      C1502   1.349       .  D
C1502      H1510   1.085       .  S
C1511      C1519   1.482       .  S
C1511      C1512   1.402       .  A
C1511      C1516   1.408       .  A
C1512      C1513   1.401   1_565  A
C1512      H1521   1.084       .  S
C1513      C1514   1.408       .  A
C1513      H1522   1.082       .  S
C1514      C1517   1.479       .  S
C1514      C1515   1.399       .  A
C1515      C1516   1.393   1_545  A
C1515      H1523   1.085       .  S
C1516      H1524   1.082       .  S
C1517      H1525   1.088       .  S
C1517      C1518   1.344       .  D
C1518      H1526   1.088       .  S
C1519      H1527   1.087       .  S
C1519      C1520   1.346       .  D
C1520      H1528   1.087       .  S
C1529      C1537   1.481       .  S
C1529      C1530   1.399   1_455  A
C1529      C1534   1.406   1_455  A
C1530      C1531   1.397       .  A
C1530      H1539   1.083       .  S
C1531      C1532   1.413       .  A
C1531      H1540   1.080       .  S
C1532      C1535   1.494       .  S
C1532      C1533   1.404       .  A
C1533      C1534   1.401       .  A
C1533      H1541   1.083       .  S
C1534      H1542   1.083   1_655  S
C1535      H1543   1.087       .  S
C1535      C1536   1.346       .  D
C1536      H1544   1.085       .  S
C1537      H1545   1.086       .  S
C1537      C1538   1.347       .  D
C1538      H1546   1.088       .  S
C1547      C1555   1.497       .  S
C1547      C1548   1.405       .  A
C1547      C1552   1.411       .  A
C1548      C1549   1.403       .  A
C1548      H1557   1.085       .  S
C1549      C1550   1.410       .  A
C1549      H1558   1.081       .  S
C1550      C1553   1.490       .  S
C1550      C1551   1.401       .  A
C1551      C1552   1.398       .  A
C1551      H1559   1.084       .  S
C1552      H1560   1.080       .  S
C1553      H1561   1.085       .  S
C1553      C1554   1.349       .  D
C1554      H1562   1.086       .  S
C1555      H1563   1.088       .  S
C1555      C1556   1.350       .  D
C1556      H1564   1.085       .  S
C1565      C1573   1.491       .  S
C1565      C1566   1.402       .  A
C1565      C1570   1.411       .  A
C1566      C1567   1.398       .  A
C1566      H1575   1.083       .  S
C1567      C1568   1.409       .  A
C1567      H1576   1.082       .  S
C1568      C1571   1.490       .  S
C1568      C1569   1.403       .  A
C1569      C1570   1.402       .  A
C1569      H1577   1.083       .  S
C1570      H1578   1.082       .  S
C1571      H1579   1.086       .  S
C1571      C1572   1.348       .  D
C1572      H1580   1.087       .  S
C1573      H1581   1.086       .  S
C1573      C1574   1.347       .  D
C1574      H1582   1.086       .  S
C1583      C1591   1.493       .  S
C1583      C1584   1.407       .  A
C1583      C1588   1.405       .  A
C1584      C1585   1.402   1_655  A
C1584      H1593   1.082       .  S
C1585      C1586   1.411       .  A
C1585      H1594   1.081       .  S
C1586      C1589   1.497       .  S
C1586      C1587   1.404       .  A
C1587      C1588   1.402   1_455  A
C1587      H1595   1.084       .  S
C1588      H1596   1.083       .  S
C1589      H1597   1.087       .  S
C1589      C1590   1.350       .  D
C1590      H1598   1.086       .  S
C1591      H1599   1.087       .  S
C1591      C1592   1.354       .  D
C1592      H1600   1.084       .  S
