geometry optimzed in LAMMPS
_audit_creation_date              2020-11-30 
_audit_creation_method            'lammps2cif' 
_symmetry_space_group_name_H-M    'P1' 
_symmetry_Int_Tables_number       1 
_symmetry_cell_setting            triclinic 
loop_ 
_symmetry_equiv_pos_as_xyz 
  x,y,z 
_cell_length_a                    55.44872677 
_cell_length_b                    55.28324890231541 
_cell_length_c                    33.47155330085487 
_cell_angle_alpha                 90.09038772353112 
_cell_angle_beta                  89.99663324602496 
_cell_angle_gamma                 120.17456897232152 
loop_ 
_atom_site_label 
_atom_site_type_symbol 
_atom_site_fract_x 
_atom_site_fract_y 
_atom_site_fract_z 
_atom_site_charge 
O1          O  0.58230408  0.38572074  0.43972135    -0.87900
C2          C  0.61081638  0.43858975  0.53446685     0.88100
Mg3        Mg  0.58902694  0.39907062  0.37925047     1.58100
O4          O  0.53887351  0.40762122  0.52143698    -0.87600
O5          O  0.54633582  0.36076397  0.47889206    -0.75000
C6          C  0.54818911  0.49267735  0.36993648     0.93200
O7          O  0.63628114  0.44700190  0.44681015    -0.74800
O8          O  0.56533696  0.48618312  0.35544820    -0.82300
Mg9        Mg  0.61794614  0.40452740  0.47843433     1.58000
C10         C  0.50114638  0.45563750  0.52564098     0.93100
O11         O  0.60349628  0.36309130  0.50867044    -0.80600
H12         H  0.50098876  0.37352435  0.51976143    -0.05900
C13         C  0.58429409  0.48540205  0.47023768     0.88000
O14         O  0.54434642  0.39249053  0.37691681    -0.75100
O15         O  0.59592847  0.41554245  0.51866736    -0.87800
O16         O  0.51746159  0.45069590  0.54646630    -0.80600
C17         C  0.56132930  0.41970253  0.62356136     0.93200
C18         C  0.58825669  0.34727969  0.53651818     0.93100
Mg19       Mg  0.52529757  0.44359225  0.44294915     1.58000
O20         O  0.53620462  0.48295510  0.40357746    -0.80600
O21         O  0.50720061  0.40266686  0.47810673    -0.74800
O22         O  0.56430294  0.40164851  0.60353080    -0.80600
O23         O  0.64330406  0.39441334  0.43799808    -0.82400
O24         O  0.57718229  0.44092654  0.31661175    -0.80700
C25         C  0.51507656  0.39395642  0.50756098     0.87500
O26         O  0.54675189  0.43022735  0.40235946    -0.87800
O27         O  0.56280758  0.46344022  0.47922076    -0.87900
O28         O  0.59605980  0.48861155  0.43647709    -0.75000
Mg29       Mg  0.55632487  0.38281708  0.53972360     1.58000
O30         O  0.55558483  0.43694665  0.60670315    -0.87200
H31         H  0.54977230  0.34919381  0.42266319    -0.06100
O32         O  0.60596367  0.44131182  0.40028840    -0.87600
H33         H  0.64231291  0.47695940  0.40661207    -0.05900
H34         H  0.51111256  0.39843633  0.38112370    -0.06100
C35         C  0.62879257  0.45582406  0.41691138     0.87500
C36         C  0.55944468  0.36450548  0.44621358     0.88100
C37         C  0.53315914  0.40692515  0.38650035     0.88100
H38         H  0.59373327  0.50202228  0.49206718    -0.06100
O39         O  0.60179160  0.45509021  0.54200951    -0.75100
Mg40       Mg  0.58568569  0.46274929  0.37843289     1.58000
H41         H  0.63252349  0.44544530  0.54016040    -0.06100
C42         C  0.64834119  0.39846879  0.40097500     0.93100
O43         O  0.59359232  0.41157034  0.31403597    -0.82300
C44         C  0.58337581  0.42497208  0.29699796     0.93200
O45         O  0.57255596  0.35346071  0.55666228    -0.82300
Mg46       Mg  0.55857104  0.45040696  0.54111450     1.58200
O47         O  0.63285918  0.40280007  0.37722213    -0.80600
O48         O  0.50236199  0.45630957  0.48751726    -0.82300
O49         O  0.58135312  0.38352026  0.93779817    -0.87900
C50         C  0.61085887  0.43506849  0.03459845     0.88100
Mg51       Mg  0.58660738  0.39724045  0.87709762     1.58100
O52         O  0.53842854  0.40295304  0.02473847    -0.87600
O53         O  0.54679918  0.35757434  0.97878141    -0.75000
C54         C  0.54144857  0.48698423  0.87721988     0.93200
O55         O  0.63392672  0.44546306  0.94481510    -0.74800
O56         O  0.55662793  0.47974822  0.85827836    -0.82300
Mg57       Mg  0.61755728  0.40276065  0.97530701     1.58000
C58         C  0.50274287  0.45347922  0.03306575     0.93100
O59         O  0.60510364  0.36104952  0.00423371    -0.80600
H60         H  0.50066950  0.36863393  0.02373822    -0.05900
C61         C  0.58208379  0.48114336  0.97347023     0.88000
O62         O  0.54133311  0.38909739  0.87753919    -0.75100
O63         O  0.59588938  0.41244205  0.01786615    -0.87800
O64         O  0.51688200  0.44575268  0.05403634    -0.80600
C65         C  0.56313736  0.41496383  0.12544709     0.93200
C66         C  0.59121214  0.34558121  0.03329297     0.93100
Mg67       Mg  0.52363812  0.43942329  0.94899572     1.58000
O68         O  0.53487235  0.47988811  0.91360643    -0.80600
O69         O  0.50585722  0.39803452  0.98310356    -0.74800
O70         O  0.56655929  0.39754476  0.10449260    -0.80600
O71         O  0.64271175  0.39430528  0.93284506    -0.82400
O72         O  0.57234983  0.43903540  0.81711826    -0.80700
C73         C  0.51440131  0.38919191  0.01163773     0.87500
O74         O  0.54365374  0.42597613  0.90569860    -0.87800
O75         O  0.56155376  0.45865619  0.98335758    -0.87900
O76         O  0.59210155  0.48513891  0.93829707    -0.75000
Mg77       Mg  0.55745190  0.37901936  0.04032179     1.58000
O78         O  0.55619142  0.43168723  0.10994766    -0.82400
H79         H  0.54889895  0.34667825  0.92157307    -0.06100
O80         O  0.60323812  0.43954693  0.89864751    -0.87600
H81         H  0.63885405  0.47578977  0.90604721    -0.05900
H82         H  0.50771344  0.39408137  0.88539571    -0.06100
C83         C  0.62592085  0.45434617  0.91553665     0.87500
C84         C  0.55896594  0.36191559  0.94511017     0.88100
C85         C  0.52993774  0.40288289  0.88936521     0.88100
H86         H  0.59194102  0.49768920  0.99534608    -0.06100
O87         O  0.60168558  0.45111144  0.04418013    -0.75100
Mg88       Mg  0.58078930  0.45953207  0.87950508     1.58000
H89         H  0.63266372  0.44194130  0.03946790    -0.06100
C90         C  0.64718879  0.39852824  0.89579933     0.93100
O91         O  0.58911297  0.41006581  0.81168543    -0.82300
C92         C  0.57888011  0.42395852  0.79606285     0.93200
O93         O  0.57563804  0.35099844  0.05503897    -0.82300
Mg94       Mg  0.55814001  0.44561419  0.04521668     1.58200
O95         O  0.63114790  0.40240310  0.87253700    -0.80600
O96         O  0.50345490  0.45365491  0.99503420    -0.82300
O97         O  0.41247406  0.61005380  0.18951766    -0.87900
C98         C  0.38303922  0.55534096  0.28218148     0.88100
Mg99       Mg  0.40810560  0.59823350  0.12814964     1.58100
O100        O  0.45553731  0.58954976  0.27332726    -0.87600
O101        O  0.44633988  0.63561779  0.23161099    -0.75000
C102        C  0.45409491  0.50878968  0.12150883     0.93200
O103        O  0.35989650  0.54760751  0.19301030    -0.74800
O104        O  0.43729415  0.51490363  0.10479870    -0.82300
Mg105      Mg  0.37578049  0.58934187  0.22606964     1.58000
C106        C  0.49585265  0.54331689  0.27868073     0.93100
O107        O  0.38767028  0.63037947  0.25716828    -0.80600
H108        H  0.49250094  0.62485697  0.27332318    -0.05900
C109        C  0.41418288  0.51245790  0.21891150     0.88000
O110        O  0.45327061  0.60633787  0.12814000    -0.75100
O111        O  0.39747279  0.57881341  0.26747384    -0.87800
O112        O  0.47892167  0.54748514  0.29931172    -0.80600
C113        C  0.43064384  0.57451038  0.37389418     0.93200
C114        C  0.40112110  0.64524654  0.28698884     0.93100
Mg115      Mg  0.47292657  0.55632029  0.19521990     1.58000
O116        O  0.46404947  0.51761594  0.15638207    -0.80600
O117        O  0.48866387  0.59671384  0.23126478    -0.74800
O118        O  0.42644159  0.59173409  0.35386126    -0.80600
O119        O  0.35098534  0.59868369  0.18444838    -0.82400
O120        O  0.42175936  0.55704115  0.06543380    -0.80700
C121        C  0.47946524  0.60436056  0.26044960     0.87500
O122        O  0.45155149  0.56896297  0.15325825    -0.87800
O123        O  0.43476963  0.53477995  0.22930659    -0.87900
O124        O  0.40334787  0.50928137  0.18442744    -0.75000
Mg125      Mg  0.43548899  0.61218819  0.29137418     1.58000
O126        O  0.43833078  0.55872296  0.35709578    -0.82400
H127        H  0.44419515  0.64783685  0.17528806    -0.06100
O128        O  0.39149664  0.55540453  0.14748598    -0.87600
H129        H  0.35588020  0.51884654  0.15183681    -0.05900
H130        H  0.48717230  0.60163144  0.13384469    -0.06100
C131        C  0.36850791  0.53991789  0.16304970     0.87500
C132        C  0.43437675  0.63186906  0.19789678     0.88100
C133        C  0.46493086  0.59246439  0.13812313     0.88100
H134        H  0.40474096  0.49542647  0.24003345    -0.06100
O135        O  0.39306798  0.53977249  0.29023931    -0.75100
Mg136      Mg  0.41396051  0.53569059  0.12700708     1.58000
H137        H  0.36097791  0.54735738  0.28658017    -0.06100
C138        C  0.34780230  0.59756407  0.14697943     0.93100
O139        O  0.40596962  0.58695982  0.06225817    -0.82300
C140        C  0.41549973  0.57277609  0.04553063     0.93200
O141        O  0.41633017  0.63929718  0.30872028    -0.82300
Mg142      Mg  0.43713717  0.54648226  0.29149728     1.58200
O143        O  0.36421358  0.59443624  0.12343666    -0.80600
O144        O  0.49557916  0.54394430  0.24057743    -0.82300
O145        O  0.41335756  0.61063971  0.68794334    -0.87900
C146        C  0.38248273  0.55661909  0.78285285     0.88100
Mg147      Mg  0.40653826  0.59645862  0.62778814     1.58100
O148        O  0.45489937  0.58717456  0.77186686    -0.87600
O149        O  0.44947282  0.63472866  0.72771568    -0.75000
C150        C  0.44724202  0.50286513  0.62093547     0.93200
O151        O  0.35752081  0.55012939  0.69348204    -0.74800
O152        O  0.43030516  0.50952555  0.60615567    -0.82300
Mg153      Mg  0.37718632  0.59275705  0.72560168     1.58000
C154        C  0.48839898  0.53539349  0.78098597     0.93100
O155        O  0.39346255  0.63454431  0.75652475    -0.80600
H156        H  0.49361632  0.62003209  0.77266725    -0.05900
C157        C  0.40884769  0.50899481  0.72064407     0.88000
O158        O  0.45102007  0.60181257  0.62704690    -0.75100
O159        O  0.39878819  0.57960349  0.76606599    -0.87800
O160        O  0.47514020  0.54527715  0.79939246    -0.80600
C161        C  0.43169611  0.57624835  0.87322028     0.93200
C162        C  0.40891371  0.65027359  0.78443236     0.93100
Mg163      Mg  0.46843290  0.54945261  0.69611578     1.58000
O164        O  0.45759675  0.51082154  0.65587011    -0.80600
O165        O  0.48744064  0.59028723  0.73191113    -0.74800
O166        O  0.43022699  0.59504567  0.85298472    -0.80600
O167        O  0.35361356  0.60484607  0.68551031    -0.82400
O168        O  0.41819644  0.55351808  0.56707928    -0.80700
C169        C  0.47922506  0.59986962  0.75988581     0.87500
O170        O  0.44840496  0.56442523  0.65415100    -0.87800
O171        O  0.43023575  0.53087701  0.73016495    -0.87900
O172        O  0.39763402  0.50598276  0.68650161    -0.75000
Mg173      Mg  0.43916937  0.61343718  0.78925401     1.58000
O174        O  0.43617917  0.55803364  0.85674436    -0.82400
H175        H  0.44689271  0.64645502  0.67125825    -0.06100
O176        O  0.38893218  0.55436991  0.64994001    -0.87600
H177        H  0.35161407  0.51957481  0.65422583    -0.05900
H178        H  0.48427720  0.59600786  0.63326236    -0.06100
C179        C  0.36546049  0.54055423  0.66496141     0.87500
C180        C  0.43662245  0.63132193  0.69477729     0.88100
C181        C  0.46218176  0.58758126  0.63803058     0.88100
H182        H  0.39905404  0.49229866  0.74223752    -0.06100
O183        O  0.39040199  0.53940070  0.79138974    -0.75100
Mg184      Mg  0.40927122  0.53236134  0.62900468     1.58000
H185        H  0.36096102  0.55086425  0.78784742    -0.06100
C186        C  0.34832871  0.60037197  0.64863682     0.93100
O187        O  0.40178025  0.58274135  0.56262552    -0.82300
C188        C  0.41169825  0.56874839  0.54639360     0.93200
O189        O  0.42397875  0.64368328  0.80528888    -0.82300
Mg190      Mg  0.43387737  0.54439816  0.79173489     1.58200
O191        O  0.36287524  0.59445523  0.62505708    -0.80600
O192        O  0.48767838  0.53304837  0.74288353    -0.82300
O193        O  0.19687194  0.61441925  0.05808334    -0.87900
C194        C  0.17284274  0.56394286  0.96077111     0.88100
Mg195      Mg  0.18992270  0.59988486  0.11815905     1.58100
O196        O  0.13254521  0.59532350  0.97565015    -0.87600
O197        O  0.18707241  0.64081625  0.02002837    -0.75000
C198        C  0.05557195  0.50768678  0.12510981     0.93200
O199        O  0.18885669  0.55306952  0.04765887    -0.74800
O200        O  0.07901956  0.51357624  0.13967207    -0.82300
Mg201      Mg  0.21367298  0.59623702  0.01816558     1.58000
C202        C  0.04579992  0.54631154  0.97086315     0.93100
O203        O  0.24118391  0.63840880  0.99042196    -0.80600
H204        H  0.12905415  0.62948122  0.97988584    -0.05900
C205        C  0.09913469  0.51628163  0.02376167     0.88000
O206        O  0.15221247  0.60693754  0.12160094    -0.75100
O207        O  0.18116574  0.58662728  0.97774644    -0.87800
O208        O  0.06726754  0.55297806  0.94926476    -0.80600
C209        C  0.14360294  0.58438329  0.87323707     0.93200
C210        C  0.24273202  0.65531910  0.96366010     0.93100
Mg211      Mg  0.08228006  0.55747832  0.05354298     1.58000
O212        O  0.05346494  0.51741121  0.09141844    -0.80600
O213        O  0.10562676  0.59916722  0.01993224    -0.74800
O214        O  0.16466059  0.60196425  0.89379234    -0.80600
O215        O  0.24861401  0.60485126  0.05855486    -0.82400
O216        O  0.13592020  0.55606837  0.17986650    -0.80700
C217        C  0.12249531  0.60868733  0.99078536     0.87500
O218        O  0.11691626  0.56992156  0.09458981    -0.87800
O219        O  0.09994404  0.53853320  0.01587508    -0.87900
O220        O  0.10720286  0.51217250  0.05735008    -0.75000
Mg221      Mg  0.17526140  0.62014800  0.95809715     1.58000
O222        O  0.12008174  0.56758674  0.88930765    -0.82400
H223        H  0.20139887  0.65081699  0.07685652    -0.06100
O224        O  0.16447066  0.55804787  0.09533262    -0.87600
H225        H  0.16461703  0.52232433  0.08672187    -0.05900
H226        H  0.11309852  0.60124116  0.11770663    -0.06100
C227        C  0.17253582  0.54374288  0.07753558     0.87500
C228        C  0.19577351  0.63602273  0.05258291     0.88100
C229        C  0.12662094  0.59281849  0.11163564     0.88100
H230        H  0.09198732  0.50014954  0.00117709    -0.06100
O231        O  0.14729216  0.54785814  0.95265158    -0.75100
Mg232      Mg  0.12268683  0.53650418  0.11671787     1.58000
H233        H  0.18755564  0.55701062  0.95444615    -0.06100
C234        C  0.24928275  0.59986877  0.09528368     0.93100
O235        O  0.18154571  0.58622233  0.18317516    -0.82300
C236        C  0.15792041  0.57171345  0.19997672     0.93200
O237        O  0.22155076  0.64987859  0.94216993    -0.82300
Mg238      Mg  0.10895183  0.55292253  0.95436732     1.58200
O239        O  0.22951523  0.59540822  0.11920699    -0.80600
O240        O  0.04659757  0.54494183  0.00890290    -0.82300
O241        O  0.19630099  0.61531003  0.55852661    -0.87900
C242        C  0.17530443  0.56183458  0.46507149     0.88100
Mg243      Mg  0.18887838  0.60240365  0.61941691     1.58100
O244        O  0.13278559  0.59151288  0.47220715    -0.87600
O245        O  0.18582275  0.63936718  0.51664841    -0.75000
C246        C  0.05443437  0.51091448  0.62354880     0.93200
O247        O  0.19008978  0.55454841  0.55455652    -0.74800
O248        O  0.07703340  0.51848475  0.64230649    -0.82300
Mg249      Mg  0.21464631  0.59699782  0.52227369     1.58000
C250        C  0.04675157  0.53994354  0.46538829     0.93100
O251        O  0.24162438  0.63839804  0.49205156    -0.80600
H252        H  0.12802284  0.62499446  0.47068827    -0.05900
C253        C  0.10003110  0.51457154  0.52721678     0.88000
O254        O  0.15067541  0.60893272  0.61899897    -0.75100
O255        O  0.18253906  0.58490154  0.48007876    -0.87800
O256        O  0.06844901  0.54596843  0.44478004    -0.80600
C257        C  0.14594420  0.57815644  0.37232866     0.93200
C258        C  0.24273461  0.65348156  0.46283140     0.93100
Mg259      Mg  0.08246990  0.55610011  0.54917273     1.58000
O260        O  0.05446338  0.51643432  0.58654030    -0.80600
O261        O  0.10486641  0.59657706  0.51307235    -0.74800
O262        O  0.16633502  0.59690253  0.39272049    -0.80600
O263        O  0.24964584  0.60869313  0.56433845    -0.82400
O264        O  0.13405158  0.56131671  0.68071567    -0.80700
C265        C  0.12191294  0.60496513  0.48412701     0.87500
O266        O  0.11655513  0.57116199  0.59181375    -0.87800
O267        O  0.10153040  0.53662507  0.51615787    -0.87900
O268        O  0.10671403  0.51166297  0.56252430    -0.75000
Mg269      Mg  0.17556446  0.61679968  0.45597925     1.58000
O270        O  0.12269279  0.56071000  0.38847483    -0.82400
H271        H  0.19899595  0.65160607  0.57348024    -0.06100
O272        O  0.16394410  0.55961987  0.59926748    -0.87600
H273        H  0.16517958  0.52422822  0.59380922    -0.05900
H274        H  0.11150924  0.60258889  0.61131007    -0.06100
C275        C  0.17284683  0.54535915  0.58346602     0.87500
C276        C  0.19432332  0.63613872  0.55047220     0.88100
C277        C  0.12544133  0.59438143  0.60750639     0.88100
H278        H  0.09322163  0.49748967  0.50624477    -0.06100
O279        O  0.15007547  0.54477139  0.45647030    -0.75100
Mg280      Mg  0.12145631  0.53893786  0.61971072     1.58000
H281        H  0.19069412  0.55547571  0.46103516    -0.06100
C282        C  0.25014637  0.60462651  0.60141677     0.93100
O283        O  0.17980831  0.59039076  0.68490835    -0.82300
C284        C  0.15585627  0.57693646  0.70115637     0.93200
O285        O  0.22166879  0.64688798  0.44050007    -0.82300
Mg286      Mg  0.11091261  0.54825805  0.45394407     1.58200
O287        O  0.22943611  0.59914310  0.62411004    -0.80600
O288        O  0.04734215  0.54074613  0.50347524    -0.82300
O289        O  0.80129391  0.38686303  0.30536813    -0.87900
C290        C  0.82640145  0.44075968  0.21189997     0.88100
Mg291      Mg  0.80841516  0.40000806  0.36628241     1.58100
O292        O  0.86610177  0.40824408  0.22206316    -0.87600
O293        O  0.81128019  0.36185231  0.26453372    -0.75000
C294        C  0.94358939  0.48991565  0.37404448     0.93200
O295        O  0.80956730  0.44873195  0.29976424    -0.74800
O296        O  0.92036036  0.48391459  0.38961395    -0.82300
Mg297      Mg  0.78472980  0.40642587  0.26750033     1.58000
C298        C  0.95269629  0.45606242  0.21682957     0.93100
O299        O  0.75704482  0.36491715  0.23685853    -0.80600
H300        H  0.86882302  0.37356560  0.22201028    -0.05900
C301        C  0.90046869  0.48560072  0.27484223     0.88000
O302        O  0.84601106  0.39262231  0.36793855    -0.75100
O303        O  0.81765167  0.41742524  0.22692224    -0.87800
O304        O  0.93145592  0.45104517  0.19579711    -0.80600
C305        C  0.85551487  0.42221723  0.12132185     0.93200
C306        C  0.75638292  0.34990803  0.20768193     0.93100
Mg307      Mg  0.91612866  0.44256617  0.30005276     1.58000
O308        O  0.94530839  0.48137825  0.33922568    -0.80600
O309        O  0.89249982  0.40196054  0.26424641    -0.74800
O310        O  0.83435660  0.40443351  0.14130516    -0.80600
O311        O  0.74953527  0.39655985  0.30843547    -0.82400
O312        O  0.86291260  0.44172347  0.42861692    -0.80700
C313        C  0.87574797  0.39394128  0.23494400     0.87500
O314        O  0.88143973  0.42956902  0.34135302    -0.87800
O315        O  0.89925365  0.46343106  0.26507652    -0.87900
O316        O  0.89231735  0.48878162  0.30893749    -0.75000
Mg317      Mg  0.82354136  0.38455787  0.20406864     1.58000
O318        O  0.87900437  0.43839697  0.13788776    -0.82400
H319        H  0.79676321  0.34990385  0.32088208    -0.06100
O320        O  0.83425611  0.44234782  0.34534858    -0.87600
H321        H  0.83416999  0.47833116  0.34018607    -0.05900
H322        H  0.88475865  0.39753375  0.36255321    -0.06100
C323        C  0.82616092  0.45721490  0.32943424     0.87500
C324        C  0.80246330  0.36550772  0.29783183     0.88100
C325        C  0.87151077  0.40640814  0.35750296     0.88100
H326        H  0.90798032  0.50246311  0.25344546    -0.06100
O327        O  0.85200050  0.45669108  0.20394454    -0.75100
Mg328      Mg  0.87641248  0.46267927  0.36657641     1.58000
H329        H  0.81202442  0.44832568  0.20711816    -0.06100
C330        C  0.74801042  0.39910197  0.34580165     0.93100
O331        O  0.81703276  0.41311771  0.43179698    -0.82300
C332        C  0.84071696  0.42703138  0.44879512     0.93200
O333        O  0.77780605  0.35633403  0.18635576    -0.82300
Mg334      Mg  0.89005969  0.45112178  0.20317173     1.58200
O335        O  0.76800441  0.40324243  0.36914523    -0.80600
O336        O  0.95166968  0.45561321  0.25497382    -0.82300
O337        O  0.80243587  0.39108079  0.80820175    -0.87900
C338        C  0.82342309  0.44395917  0.71468112     0.88100
Mg339      Mg  0.81016521  0.40460655  0.86871404     1.58100
O340        O  0.86523230  0.41390048  0.72448478    -0.87600
O341        O  0.81198444  0.36593162  0.76728726    -0.75000
C342        C  0.94450507  0.49826375  0.87543870     0.93200
O343        O  0.80782946  0.45143944  0.80316800    -0.74800
O344        O  0.92099563  0.49147718  0.89073664    -0.82300
Mg345      Mg  0.78361716  0.40868102  0.77143546     1.58000
C346        C  0.95142385  0.46478163  0.71551785     0.93100
O347        O  0.75635198  0.36665956  0.74176669    -0.80600
H348        H  0.87016088  0.38050598  0.72434740    -0.05900
C349        C  0.89899867  0.49215896  0.77611031     0.88000
O350        O  0.84886827  0.39892019  0.86866037    -0.75100
O351        O  0.81564894  0.42071760  0.72947027    -0.87800
O352        O  0.92872111  0.45660902  0.69633386    -0.80600
C353        C  0.85239537  0.42534919  0.62286852     0.93200
C354        C  0.75549873  0.35161259  0.71253827     0.93100
Mg355      Mg  0.91769393  0.45137356  0.80021740     1.58000
O356        O  0.94668136  0.49054304  0.84017994    -0.80600
O357        O  0.89452819  0.41043176  0.76447760    -0.74800
O358        O  0.83175743  0.40760090  0.64366508    -0.80600
O359        O  0.74921816  0.39703280  0.81343515    -0.82400
O360        O  0.86483450  0.44733573  0.92977298    -0.80700
C361        C  0.87647132  0.40089579  0.73673687     0.87500
O362        O  0.88346813  0.43686864  0.84255518    -0.87800
O363        O  0.89814973  0.47017295  0.76629627    -0.87900
O364        O  0.89141763  0.49534157  0.81064065    -0.75000
Mg365      Mg  0.82261333  0.38846307  0.70685839     1.58000
O366        O  0.87569827  0.44253278  0.63918742    -0.82400
H367        H  0.79870873  0.35454365  0.82424442    -0.06100
O368        O  0.83452911  0.44702869  0.84754118    -0.87600
H369        H  0.83263543  0.48206434  0.84225770    -0.05900
H370        H  0.88814477  0.40533523  0.86239815    -0.06100
C371        C  0.82519842  0.46094558  0.83193211     0.87500
C372        C  0.80374840  0.36981038  0.80086901     0.88100
C373        C  0.87429043  0.41358285  0.85808766     0.88100
H374        H  0.90577230  0.50884124  0.75452756    -0.06100
O375        O  0.84882094  0.46076970  0.70654444    -0.75100
Mg376      Mg  0.87692124  0.46891325  0.86821570     1.58000
H377        H  0.80834783  0.45070248  0.71044733    -0.06100
C378        C  0.74842359  0.40072949  0.85053145     0.93100
O379        O  0.81923732  0.41737748  0.93372303    -0.82300
C380        C  0.84309406  0.43140603  0.95004706     0.93200
O381        O  0.77669134  0.35854338  0.69036895    -0.82300
Mg382      Mg  0.88759263  0.45648234  0.70458981     1.58200
O383        O  0.76917488  0.40684593  0.87346201    -0.80600
O384        O  0.95269186  0.46646129  0.75361018    -0.82300
O385        O  0.61339772  0.19601915  0.10642337    -0.87900
C386        C  0.56192574  0.17291446  0.20237232     0.88100
Mg387      Mg  0.59997021  0.18769971  0.04594048     1.58100
O388        O  0.59645624  0.13509303  0.19294522    -0.87600
O389        O  0.64045398  0.18929170  0.14758009    -0.75000
C390        C  0.51575478  0.05227818  0.04544170     0.93200
O391        O  0.55124658  0.18530262  0.11314332    -0.74800
O392        O  0.52222361  0.07449066  0.02636979    -0.82300
Mg393      Mg  0.59392731  0.21258776  0.14343126     1.58000
C394        C  0.54897037  0.04853401  0.20267204     0.93100
O395        O  0.63591332  0.24193709  0.17050851    -0.80600
H396        H  0.63130202  0.13277873  0.19344202    -0.05900
C397        C  0.51844181  0.09731135  0.14134055     0.88000
O398        O  0.60994245  0.15157911  0.04640136    -0.75100
O399        O  0.58479885  0.18146483  0.18617376    -0.87800
O400        O  0.55796188  0.07151850  0.22158136    -0.80600
C401        C  0.58325012  0.14689683  0.29366285     0.93200
C402        C  0.65178375  0.24487130  0.19962043     0.93100
Mg403      Mg  0.56136928  0.08230645  0.11823701     1.58000
O404        O  0.52163729  0.05279312  0.08236403    -0.80600
O405        O  0.60235510  0.10709325  0.15309365    -0.74800
O406        O  0.60023893  0.16818093  0.27302374    -0.80600
O407        O  0.60214619  0.24625745  0.10109843    -0.82400
O408        O  0.56174352  0.13137011  0.98606018    -0.80700
C409        C  0.61075190  0.12519138  0.18087519     0.87500
O410        O  0.57421433  0.11615443  0.07512911    -0.87800
O411        O  0.54125645  0.10033407  0.15146564    -0.87900
O412        O  0.51420564  0.10306471  0.10612749    -0.75000
Mg413      Mg  0.61900285  0.17814157  0.20902177     1.58000
O414        O  0.56740723  0.12299472  0.27784543    -0.82400
H415        H  0.65063882  0.20185978  0.09010056    -0.06100
O416        O  0.55823212  0.16083432  0.06748768    -0.87600
H417        H  0.52140646  0.15880549  0.07436995    -0.05900
H418        H  0.60691466  0.11370606  0.05495633    -0.06100
C419        C  0.54286778  0.16808065  0.08406920     0.87500
C420        C  0.63546992  0.19631506  0.11372186     0.88100
C421        C  0.59727045  0.12639077  0.05875560     0.88100
H422        H  0.50179099  0.08988710  0.16304500    -0.06100
O423        O  0.54652034  0.14742793  0.21165184    -0.75100
Mg424      Mg  0.54026997  0.11848909  0.04794915     1.58000
H425        H  0.55427407  0.18725749  0.20694929    -0.06100
C426        C  0.59727306  0.24630895  0.06425583     0.93100
O427        O  0.58760241  0.17760673  0.98080535    -0.82300
C428        C  0.57575798  0.15335187  0.96509577     0.93200
O429        O  0.64590918  0.22487370  0.22385810    -0.82300
Mg430      Mg  0.55420595  0.11068301  0.21303791     1.58200
O431        O  0.59272917  0.22600057  0.04117060    -0.80600
O432        O  0.54712474  0.04724088  0.16466687    -0.82300
O433        O  0.61323231  0.19705830  0.60801178    -0.87900
C434        C  0.56287784  0.17239299  0.70509353     0.88100
Mg435      Mg  0.59867768  0.19003823  0.54766228     1.58100
O436        O  0.59660563  0.13401085  0.69003286    -0.87600
O437        O  0.64092098  0.18986161  0.64706796    -0.75000
C438        C  0.51135349  0.05425509  0.54162709     0.93200
O439        O  0.55177885  0.18720792  0.61692041    -0.74800
O440        O  0.51804237  0.07684466  0.52330162    -0.82300
Mg441      Mg  0.59482780  0.21348439  0.64700212     1.58000
C442        C  0.54877425  0.04675994  0.69518461     0.93100
O443        O  0.63657877  0.24230212  0.67502043    -0.80600
H444        H  0.63133045  0.13162436  0.68608494    -0.05900
C445        C  0.51753584  0.09820128  0.64066531     0.88000
O446        O  0.60815770  0.15366594  0.54458133    -0.75100
O447        O  0.58556125  0.18129617  0.68819000    -0.87800
O448        O  0.55593102  0.06855534  0.71631280    -0.80600
C449        C  0.58455233  0.14307497  0.79267575     0.93200
C450        C  0.65247580  0.24455188  0.70371886     0.93100
Mg451      Mg  0.55950088  0.08305462  0.61287226     1.58000
O452        O  0.51859339  0.05444598  0.57789464    -0.80600
O453        O  0.60123346  0.10711276  0.64627182    -0.74800
O454        O  0.60138219  0.16500574  0.77297176    -0.80600
O455        O  0.60430232  0.24830391  0.60624116    -0.82400
O456        O  0.55907575  0.13519622  0.48548696    -0.80700
C457        C  0.61045003  0.12441467  0.67511255     0.87500
O458        O  0.57193246  0.11753334  0.57153338    -0.87800
O459        O  0.54036558  0.10067030  0.64934681    -0.87900
O460        O  0.51280524  0.10464927  0.60618550    -0.75000
Mg461      Mg  0.61976967  0.17695117  0.70868419     1.58000
O462        O  0.56876172  0.11972331  0.77541127    -0.82400
H463        H  0.65048565  0.20377191  0.58999647    -0.06100
O464        O  0.55722660  0.16280485  0.56950211    -0.87600
H465        H  0.52093432  0.16149101  0.57876818    -0.05900
H466        H  0.60427536  0.11518978  0.54954538    -0.06100
C467        C  0.54251961  0.17024432  0.58755312     0.87500
C468        C  0.63550808  0.19749901  0.61402058     0.88100
C469        C  0.59498633  0.12803033  0.55499179     0.88100
H470        H  0.50128844  0.09062024  0.66301367    -0.06100
O471        O  0.54754509  0.14669691  0.71329252    -0.75100
Mg472      Mg  0.53793611  0.12092698  0.54732062     1.58000
H473        H  0.55535440  0.18665315  0.71140389    -0.06100
C474        C  0.59573068  0.24789900  0.57117088     0.93100
O475        O  0.58569990  0.18147007  0.48232790    -0.82300
C476        C  0.57364170  0.15755790  0.46549907     0.93200
O477        O  0.64713150  0.22368293  0.72598976    -0.82300
Mg478      Mg  0.55431615  0.10931237  0.71087280     1.58200
O479        O  0.59028301  0.22778037  0.54711047    -0.80600
O480        O  0.54681520  0.04712346  0.65724310    -0.82300
O481        O  0.38879204  0.80229712  0.35726593    -0.87900
C482        C  0.44104118  0.82340749  0.45159265     0.88100
Mg483      Mg  0.40225972  0.80900769  0.29649260     1.58100
O484        O  0.41122443  0.86553917  0.44098403    -0.87600
O485        O  0.36376490  0.81204741  0.39823818    -0.75000
C486        C  0.49588140  0.94399047  0.29235792     0.93200
O487        O  0.44884079  0.80777664  0.36331746    -0.74800
O488        O  0.48816427  0.92128427  0.27343714    -0.82300
Mg489      Mg  0.40607278  0.78372853  0.39478020     1.58000
C490        C  0.46236243  0.95113110  0.44865657     0.93100
O491        O  0.36406701  0.75739772  0.42387673    -0.80600
H492        H  0.37776061  0.87023280  0.43996077    -0.05900
C493        C  0.48879546  0.89815812  0.38882980     0.88000
O494        O  0.39634595  0.84767920  0.29528626    -0.75100
O495        O  0.41808002  0.81606902  0.43640155    -0.87800
O496        O  0.45370890  0.92840508  0.46786653    -0.80600
C497        C  0.42476500  0.85436939  0.54195493     0.93200
C498        C  0.34905694  0.75641508  0.45312482     0.93100
Mg499      Mg  0.44859139  0.91651696  0.36458609     1.58000
O500        O  0.48907809  0.94390623  0.32879842    -0.80600
O501        O  0.40740899  0.89392968  0.39926374    -0.74800
O502        O  0.40590544  0.83338382  0.52259603    -0.80600
O503        O  0.39438935  0.74840621  0.35367685    -0.82400
O504        O  0.44526014  0.86328360  0.23430426    -0.80700
C505        C  0.39813424  0.87647120  0.42780070     0.87500
O506        O  0.43402812  0.88230768  0.32186736    -0.87800
O507        O  0.46652082  0.89658728  0.39837650    -0.87900
O508        O  0.49255127  0.89134572  0.35406584    -0.75000
Mg509      Mg  0.38609690  0.82321808  0.45916166     1.58000
O510        O  0.44170444  0.87729022  0.52479666    -0.82400
H511        H  0.35243446  0.79878337  0.34115225    -0.06100
O512        O  0.44480286  0.83388646  0.31731055    -0.87600
H513        H  0.47976999  0.83224294  0.32455732    -0.05900
H514        H  0.40287224  0.88716038  0.30111224    -0.06100
C515        C  0.45856722  0.82484200  0.33418308     0.87500
C516        C  0.36766603  0.80381169  0.36457060     0.88100
C517        C  0.41094998  0.87319293  0.30587250     0.88100
H518        H  0.50531093  0.90510045  0.41071598    -0.06100
O519        O  0.45824163  0.84883602  0.45922108    -0.75100
Mg520      Mg  0.46635159  0.87647386  0.29618397     1.58000
H521        H  0.44720954  0.80793027  0.45646831    -0.06100
C522        C  0.39858478  0.74705043  0.31686267     0.93100
O523        O  0.41489531  0.81766369  0.23114583    -0.82300
C524        C  0.42942834  0.84129460  0.21416521     0.93200
O525        O  0.35631367  0.77739599  0.47609352    -0.82300
Mg526      Mg  0.45398186  0.88763738  0.45988178     1.58200
O527        O  0.40484729  0.76758166  0.29320903    -0.80600
O528        O  0.46403332  0.95214444  0.41063005    -0.82300
O529        O  0.39443594  0.80707665  0.85412283    -0.87900
C530        C  0.44420411  0.81975929  0.94775210     0.88100
Mg531      Mg  0.40897045  0.81287695  0.79383051     1.58100
O532        O  0.41994833  0.86690282  0.94021202    -0.87600
O533        O  0.37007979  0.81726670  0.89534650    -0.75000
C534        C  0.50484195  0.94520334  0.79018661     0.93200
O535        O  0.45020292  0.80507536  0.85915304    -0.74800
O536        O  0.49712578  0.92185343  0.77327539    -0.82300
Mg537      Mg  0.40630711  0.78323584  0.88910194     1.58000
C538        C  0.47439381  0.95114723  0.95081053     0.93100
O539        O  0.36383508  0.75948065  0.91719320    -0.80600
H540        H  0.38846510  0.87468983  0.94135239    -0.05900
C541        C  0.49767369  0.89741036  0.88739012     0.88000
O542        O  0.40487077  0.85270037  0.79219423    -0.75100
O543        O  0.42132946  0.81407649  0.93375952    -0.87800
O544        O  0.46660228  0.92823599  0.96915223    -0.80600
C545        C  0.42971788  0.85200544  0.04051759     0.93200
C546        C  0.34953161  0.75892794  0.94704513     0.93100
Mg547      Mg  0.45909909  0.91871907  0.86508423     1.58000
O548        O  0.49888647  0.94683781  0.82663310    -0.80600
O549        O  0.41834266  0.89742190  0.90048062    -0.74800
O550        O  0.41009340  0.83226387  0.02035528    -0.80600
O551        O  0.38876084  0.74939559  0.84413343    -0.82400
O552        O  0.45221575  0.86638288  0.73341150    -0.80700
C553        C  0.40832784  0.87966282  0.92850366     0.87500
O554        O  0.44296817  0.88514689  0.82120784    -0.87800
O555        O  0.47577397  0.89643719  0.89743585    -0.87900
O556        O  0.50097964  0.89084996  0.85226172    -0.75000
Mg557      Mg  0.39164157  0.82480358  0.95654791     1.58000
O558        O  0.44902744  0.87409948  0.02403417    -0.82400
H559        H  0.35990258  0.80713925  0.83704685    -0.06100
O560        O  0.45065058  0.83540301  0.81626943    -0.87600
H561        H  0.48349308  0.83006230  0.82398029    -0.05900
H562        H  0.41386259  0.89294706  0.79966062    -0.06100
C563        C  0.46235756  0.82389787  0.83250299     0.87500
C564        C  0.37417309  0.81008306  0.86105058     0.88100
C565        C  0.42047053  0.87778244  0.80423703     0.88100
H566        H  0.51419063  0.90356726  0.90909608    -0.06100
O567        O  0.46287475  0.84471920  0.95548575    -0.75100
Mg568      Mg  0.47406214  0.87756914  0.79515310     1.58000
H569        H  0.44898578  0.80317472  0.95136201    -0.06100
C570        C  0.40244406  0.75069075  0.81345082     0.93100
O571        O  0.42229000  0.82067308  0.72925657    -0.82300
C572        C  0.43617698  0.84460123  0.71308603     0.93200
O573        O  0.35858358  0.77936904  0.97153911    -0.82300
Mg574      Mg  0.46260348  0.88574321  0.95904744     1.58200
O575        O  0.41348255  0.77269774  0.79192701    -0.80600
O576        O  0.47557730  0.95292801  0.91277679    -0.82300
C577        C  0.43333368  0.84728960  0.66939234    -0.04900
C578        C  0.40669559  0.83770763  0.65237816    -0.02000
C579        C  0.40386335  0.84026733  0.61089767     0.03000
C580        C  0.42760972  0.85199043  0.58586800    -0.04900
C581        C  0.45429184  0.86157035  0.60300594    -0.02000
C582        C  0.45714982  0.85963696  0.64461553     0.03000
C583        C  0.38223115  0.82626847  0.67785330     0.37600
C584        C  0.47883191  0.87243087  0.57772306     0.37600
C585        C  0.48463447  0.86979460  0.66178826     0.36000
C586        C  0.37658502  0.83189462  0.59431590     0.36000
N587        N  0.50656680  0.87801132  0.67548516    -0.38800
N588        N  0.35485825  0.82535194  0.58109524    -0.38800
N589        N  0.49838481  0.88098534  0.55756775    -0.38200
N590        N  0.36275483  0.81722571  0.69822520    -0.38200
C591        C  0.42973249  0.84925856  0.08484339    -0.04900
C592        C  0.42681361  0.82467897  0.10236463    -0.02000
C593        C  0.42635184  0.82184781  0.14438818     0.03000
C594        C  0.42853731  0.84353194  0.16958109    -0.04900
C595        C  0.43086623  0.86791895  0.15179957    -0.02000
C596        C  0.43203891  0.87096899  0.10981015     0.03000
C597        C  0.42558190  0.80271034  0.07710370     0.37600
C598        C  0.43082523  0.88954107  0.17645815     0.37600
C599        C  0.43505317  0.89637054  0.09230479     0.36000
C600        C  0.42448712  0.79682479  0.16140065     0.36000
N601        N  0.43765548  0.91668823  0.07833208    -0.38800
N602        N  0.42292364  0.77682108  0.17490281    -0.38800
N603        N  0.43063638  0.90674020  0.19599858    -0.38200
N604        N  0.42470797  0.78525711  0.05694505    -0.38200
C605        C  0.54005453  0.01973586  0.71636204    -0.04900
C606        C  0.55485410  0.01884038  0.75038303    -0.02000
C607        C  0.54373933  0.99456136  0.77461413     0.03000
C608        C  0.51796264  0.97078908  0.76473740    -0.04900
C609        C  0.50346555  0.97144448  0.73029579    -0.02000
C610        C  0.51458738  0.99550487  0.70596396     0.03000
C611        C  0.58182390  0.04277542  0.76011097     0.37600
C612        C  0.47581079  0.94803656  0.72155061     0.37600
C613        C  0.49872952  0.99560089  0.67148055     0.36000
C614        C  0.55874323  0.99409643  0.80978818     0.36000
N615        N  0.48597778  0.99544897  0.64400436    -0.38800
N616        N  0.57068851  0.99378500  0.83795426    -0.38800
N617        N  0.45367411  0.92949110  0.71500866    -0.38200
N618        N  0.60340780  0.06185400  0.76769530    -0.38200
C619        C  0.49674767  0.02707743  0.51937152    -0.04900
C620        C  0.50508020  0.00698032  0.52569324    -0.02000
C621        C  0.49359728  0.98238236  0.50258467     0.03000
C622        C  0.47359602  0.97729880  0.47260530    -0.04900
C623        C  0.46512601  0.99713500  0.46604866    -0.02000
C624        C  0.47663282  0.02195004  0.48928399     0.03000
C625        C  0.52691722  0.01215007  0.55425018     0.37600
C626        C  0.44410650  0.99168255  0.43604955     0.37600
C627        C  0.46743812  0.04194368  0.48231207     0.36000
C628        C  0.50362221  0.96286286  0.50850919     0.36000
N629        N  0.46005938  0.05784075  0.47648822    -0.38800
N630        N  0.51162681  0.94735867  0.51324015    -0.38800
N631        N  0.42726888  0.98723974  0.41217265    -0.38200
N632        N  0.54434953  0.01616160  0.57684442    -0.38200
C633        C  0.58258573  0.14491805  0.83711304    -0.04900
C634        C  0.55625407  0.13069688  0.85637516    -0.02000
C635        C  0.55416373  0.13302205  0.89811170     0.03000
C636        C  0.57815576  0.15041606  0.92111983    -0.04900
C637        C  0.60445362  0.16463418  0.90200788    -0.02000
C638        C  0.60673806  0.16138400  0.86048486     0.03000
C639        C  0.53092143  0.11448570  0.83322100     0.37600
C640        C  0.62940714  0.18211762  0.92522926     0.37600
C641        C  0.63417536  0.17403637  0.84228505     0.36000
C642        C  0.52696858  0.11822039  0.91706817     0.36000
N643        N  0.65608771  0.18393409  0.82790563    -0.38800
N644        N  0.50525710  0.10633847  0.93207000    -0.38800
N645        N  0.64928496  0.19618597  0.94371851    -0.38200
N646        N  0.51071677  0.10160717  0.81478241    -0.38200
C647        C  0.58155711  0.15013164  0.33761770    -0.04900
C648        C  0.58449048  0.13205469  0.36440848    -0.02000
C649        C  0.58231223  0.13477276  0.40605035     0.03000
C650        C  0.57674030  0.15537483  0.42145854    -0.04900
C651        C  0.57401269  0.17359731  0.39455850    -0.02000
C652        C  0.57636110  0.17094362  0.35290663     0.03000
C653        C  0.59045500  0.11101057  0.34917708     0.37600
C654        C  0.56773087  0.19447441  0.40948649     0.37600
C655        C  0.57207094  0.18882541  0.32562654     0.36000
C656        C  0.58691075  0.11694802  0.43304816     0.36000
N657        N  0.56852738  0.20297334  0.30381772    -0.38800
N658        N  0.59067286  0.10278263  0.45452788    -0.38800
N659        N  0.56271741  0.21113819  0.42133719    -0.38200
N660        N  0.59518519  0.09422044  0.33701381    -0.38200
C661        C  0.53730705  0.02233379  0.22666880    -0.04900
C662        C  0.54440516  0.00154800  0.21907874    -0.02000
C663        C  0.53150198  0.97616008  0.24096478     0.03000
C664        C  0.51146753  0.97141565  0.27091184    -0.04900
C665        C  0.50451957  0.99245430  0.27836896    -0.02000
C666        C  0.51734471  0.01761509  0.25653527     0.03000
C667        C  0.56539385  0.00650709  0.18931719     0.37600
C668        C  0.48262958  0.98770815  0.30657562     0.37600
C669        C  0.50855528  0.03803771  0.26335914     0.36000
C670        C  0.53898522  0.95502656  0.23255091     0.36000
N671        N  0.50153093  0.05426993  0.26869797    -0.38800
N672        N  0.54485896  0.93811348  0.22561631    -0.38800
N673        N  0.46514041  0.98405638  0.32883285    -0.38200
N674        N  0.58223211  0.01047663  0.16569692    -0.38200
C675        C  0.50312511  0.02533726  0.02321699    -0.04900
C676        C  0.51354395  0.00693357  0.02950048    -0.02000
C677        C  0.50357986  0.98247010  0.00639312     0.03000
C678        C  0.48401498  0.97668749  0.97543972    -0.04900
C679        C  0.47404121  0.99528108  0.96843910    -0.02000
C680        C  0.48319350  0.01928214  0.99264629     0.03000
C681        C  0.53616939  0.01409101  0.05759012     0.37600
C682        C  0.45402200  0.98949660  0.93670845     0.37600
C683        C  0.47176393  0.03749616  0.98624538     0.36000
C684        C  0.51462579  0.96392565  0.01345150     0.36000
N685        N  0.46251485  0.05190846  0.98106191    -0.38800
N686        N  0.52339504  0.94916783  0.01930587    -0.38800
N687        N  0.43815583  0.98488395  0.91124374    -0.38200
N688        N  0.55439388  0.01992022  0.07960216    -0.38200
C689        C  0.67865878  0.27208213  0.70866756    -0.04900
C690        C  0.70466431  0.27318858  0.71117206    -0.02000
C691        C  0.72981840  0.29917562  0.71039571     0.03000
C692        C  0.72935207  0.32439031  0.70677625    -0.04900
C693        C  0.70347522  0.32338742  0.70351552    -0.02000
C694        C  0.67826110  0.29743442  0.70453552     0.03000
C695        C  0.70571426  0.24750720  0.71254886     0.37600
C696        C  0.70285908  0.34910524  0.69784186     0.37600
C697        C  0.65191592  0.29699528  0.70148204     0.36000
C698        C  0.75626478  0.29996319  0.71427804     0.36000
N699        N  0.63100411  0.29680532  0.69886298    -0.38800
N700        N  0.77738387  0.30064022  0.71733367    -0.38800
N701        N  0.70239751  0.36959359  0.69297679    -0.38200
N702        N  0.70648907  0.22698334  0.71342161    -0.38200
C703        C  0.67849630  0.27199807  0.20303256    -0.04900
C704        C  0.70385942  0.27225502  0.20963508    -0.02000
C705        C  0.72953117  0.29766862  0.20831252     0.03000
C706        C  0.73013912  0.32312370  0.20112357    -0.04900
C707        C  0.70501286  0.32295672  0.19390016    -0.02000
C708        C  0.67933581  0.29753875  0.19436800     0.03000
C709        C  0.70383348  0.24631389  0.21642040     0.37600
C710        C  0.70565462  0.34901220  0.18541114     0.37600
C711        C  0.65380130  0.29789795  0.18616668     0.36000
C712        C  0.75537981  0.29769052  0.21536309     0.36000
N713        N  0.63350675  0.29820484  0.17922692    -0.38800
N714        N  0.77600608  0.29772105  0.22081639    -0.38800
N715        N  0.70612459  0.36975699  0.17855594    -0.38200
N716        N  0.70389052  0.22567329  0.22187397    -0.38200
C717        C  0.84285845  0.42661324  0.49342665    -0.04900
C718        C  0.82774690  0.40135315  0.51501610    -0.02000
C719        C  0.83098202  0.40085399  0.55691960     0.03000
C720        C  0.84901502  0.42580605  0.57825576    -0.04900
C721        C  0.86346581  0.45122969  0.55661092    -0.02000
C722        C  0.86057384  0.45156770  0.51464915     0.03000
C723        C  0.80941081  0.37546697  0.49405246     0.37600
C724        C  0.88065917  0.47750232  0.57740382     0.37600
C725        C  0.87525045  0.47804487  0.49354039     0.36000
C726        C  0.81625644  0.37419606  0.57755736     0.36000
N727        N  0.88698322  0.49915376  0.47675239    -0.38800
N728        N  0.80444117  0.35290279  0.59387783    -0.38800
N729        N  0.89435459  0.49852591  0.59380238    -0.38200
N730        N  0.79468985  0.35480904  0.47746549    -0.38200
C731        C  0.85244859  0.42448315  0.07737856    -0.04900
C732        C  0.83719524  0.40016479  0.05366565    -0.02000
C733        C  0.83372710  0.40246390  0.01229928     0.03000
C734        C  0.84586654  0.42906098  0.99393972    -0.04900
C735        C  0.86114275  0.45336012  0.01755262    -0.02000
C736        C  0.86410193  0.45110935  0.05906103     0.03000
C737        C  0.82570780  0.37260317  0.07141630     0.37600
C738        C  0.87307564  0.48085996  0.99944975     0.37600
C739        C  0.87803773  0.47637375  0.08312721     0.36000
C740        C  0.81838425  0.37727628  0.98840632     0.36000
N741        N  0.88901438  0.49650350  0.10234817    -0.38800
N742        N  0.80610048  0.35721410  0.96934277    -0.38800
N743        N  0.88263701  0.50280304  0.98507176    -0.38200
N744        N  0.81652288  0.35059435  0.08546339    -0.38200
C745        C  0.32186837  0.73017924  0.45835230    -0.04900
C746        C  0.29683037  0.73103718  0.46084248    -0.02000
C747        C  0.27077432  0.70594446  0.46086979     0.03000
C748        C  0.26949143  0.67988215  0.45669617    -0.04900
C749        C  0.29446117  0.67907252  0.45341685    -0.02000
C750        C  0.32049268  0.70399922  0.45494954     0.03000
C751        C  0.29772824  0.75772523  0.46168716     0.37600
C752        C  0.29334770  0.65247380  0.44796650     0.37600
C753        C  0.34593039  0.70258372  0.45380679     0.36000
C754        C  0.24537100  0.70692074  0.46701789     0.36000
N755        N  0.36619631  0.70143236  0.45299769    -0.38800
N756        N  0.22514938  0.70771184  0.47229150    -0.38800
N757        N  0.29245033  0.63128115  0.44340638    -0.38200
N758        N  0.29845414  0.77901765  0.46205862    -0.38200
C759        C  0.02740889  0.49731852  0.64590728    -0.04900
C760        C  0.00785972  0.50620995  0.63872819    -0.02000
C761        C  0.98325418  0.49542130  0.66154462     0.03000
C762        C  0.97746083  0.47527885  0.69164112    -0.04900
C763        C  0.99679807  0.46629936  0.69898946    -0.02000
C764        C  0.02188358  0.47758627  0.67670926     0.03000
C765        C  0.01374718  0.52803139  0.60970768     0.37600
C766        C  0.99050832  0.44486215  0.72868941     0.37600
C767        C  0.04195953  0.46887501  0.68576639     0.36000
C768        C  0.96456631  0.50637846  0.65536278     0.36000
N769        N  0.05806788  0.46210062  0.69337876    -0.38800
N770        N  0.94974738  0.51517769  0.65058107    -0.38800
N771        N  0.98536351  0.42759724  0.75218490    -0.38200
N772        N  0.01835649  0.54546486  0.58674251    -0.38200
C773        C  0.96918945  0.50504154  0.39898792    -0.04900
C774        C  0.99310654  0.52919178  0.38482091    -0.02000
C775        C  0.01815553  0.54146084  0.40724646     0.03000
C776        C  0.01952415  0.52961985  0.44414983    -0.04900
C777        C  0.99505242  0.50603858  0.45903145    -0.02000
C778        C  0.97007193  0.49398543  0.43671485     0.03000
C779        C  0.99169891  0.54177295  0.34755846     0.37600
C780        C  0.99577200  0.49272916  0.49606318     0.37600
C781        C  0.94559197  0.46910627  0.45181666     0.36000
C782        C  0.04244320  0.56645008  0.39234061     0.36000
N783        N  0.92609603  0.44931799  0.46385074    -0.38800
N784        N  0.06182298  0.58637714  0.38039821    -0.38800
N785        N  0.99620705  0.48194514  0.52545335    -0.38200
N786        N  0.99044723  0.55184557  0.31792446    -0.38200
C787        C  0.26984752  0.68233915  0.95930659    -0.04900
C788        C  0.28755210  0.69477842  0.99315678    -0.02000
C789        C  0.31342250  0.71981037  0.98927948     0.03000
C790        C  0.32159879  0.73348136  0.95214915    -0.04900
C791        C  0.30371604  0.72169075  0.91865213    -0.02000
C792        C  0.27830081  0.69611101  0.92202323     0.03000
C793        C  0.27928224  0.68239360  0.03262200     0.37600
C794        C  0.31123588  0.73602174  0.88041519     0.37600
C795        C  0.26149193  0.68365536  0.88651958     0.36000
C796        C  0.33223665  0.73076954  0.02324712     0.36000
N797        N  0.24823089  0.67379520  0.85807422    -0.38800
N798        N  0.34731472  0.73938808  0.05022715    -0.38800
N799        N  0.31709378  0.74730328  0.84985091    -0.38200
N800        N  0.27289853  0.67265816  0.06416720    -0.38200
C801        C  0.03021296  0.49105412  0.15017447    -0.04900
C802        C  0.00575442  0.46847620  0.13406066    -0.02000
C803        C  0.98061743  0.45593196  0.15630354     0.03000
C804        C  0.97995828  0.46513681  0.19581431    -0.04900
C805        C  0.00547147  0.48565374  0.21337472    -0.02000
C806        C  0.03019863  0.49884624  0.19050158     0.03000
C807        C  0.00685092  0.45742911  0.09519632     0.37600
C808        C  0.00647997  0.49453600  0.25450268     0.37600
C809        C  0.05535077  0.52164041  0.20821203     0.36000
C810        C  0.95555385  0.43343832  0.13823884     0.36000
N811        N  0.07532143  0.53978099  0.22241266    -0.38800
N812        N  0.93563100  0.41559965  0.12349821    -0.38800
N813        N  0.00756484  0.50160934  0.28734235    -0.38200
N814        N  0.00800077  0.44844967  0.06445010    -0.38200
C815        C  0.14692552  0.58296173  0.82914661    -0.04900
C816        C  0.16923493  0.58024190  0.81373361    -0.02000
C817        C  0.17203546  0.57803520  0.77209340     0.03000
C818        C  0.15298704  0.57924394  0.74519054    -0.04900
C819        C  0.13073371  0.58206454  0.76062952    -0.02000
C820        C  0.12756720  0.58357080  0.80229759     0.03000
C821        C  0.18870892  0.57841007  0.84079708     0.37600
C822        C  0.11131165  0.58411838  0.73367340     0.37600
C823        C  0.10456195  0.58634025  0.81729711     0.36000
C824        C  0.19365692  0.57291337  0.75718340     0.36000
N825        N  0.08599965  0.58842575  0.82867874    -0.38800
N826        N  0.21074682  0.56860642  0.74528956    -0.38800
N827        N  0.09579995  0.58573096  0.71223758    -0.38200
N828        N  0.20426354  0.57693235  0.86229686    -0.38200
C829        C  0.14952323  0.57656299  0.32826049    -0.04900
C830        C  0.14038771  0.55039199  0.30945267    -0.02000
C831        C  0.14289442  0.54876106  0.26761432     0.03000
C832        C  0.15570539  0.57336086  0.24422979    -0.04900
C833        C  0.16579493  0.59959917  0.26316409    -0.02000
C834        C  0.16239710  0.60118339  0.30478221     0.03000
C835        C  0.12977908  0.52519437  0.33336033     0.37600
C836        C  0.17883830  0.62505265  0.23958381     0.37600
C837        C  0.17140273  0.62822352  0.32309581     0.36000
C838        C  0.13294826  0.52170847  0.24879682     0.36000
N839        N  0.17857269  0.64979191  0.33767631    -0.38800
N840        N  0.12493780  0.50010939  0.23381681    -0.38800
N841        N  0.18929910  0.64534880  0.22078067    -0.38200
N842        N  0.12162630  0.50516692  0.35249957    -0.38200
C843        C  0.96967331  0.51301490  0.90159535    -0.04900
C844        C  0.96980386  0.50106173  0.93895366    -0.02000
C845        C  0.99389070  0.51333816  0.96324404     0.03000
C846        C  0.01855914  0.53741940  0.95018805    -0.04900
C847        C  0.01757476  0.55072080  0.91456242    -0.02000
C848        C  0.99337652  0.53840571  0.89014168     0.03000
C849        C  0.94553162  0.47510748  0.95176036     0.37600
C850        C  0.04090359  0.57795345  0.90439033     0.37600
C851        C  0.99256979  0.55222931  0.85384810     0.36000
C852        C  0.99314186  0.50054261  0.00135158     0.36000
N853        N  0.99184168  0.56334385  0.82498649    -0.38800
N854        N  0.99220340  0.49049209  0.03201312    -0.38800
N855        N  0.05937937  0.59997544  0.89706464    -0.38200
N856        N  0.92627161  0.45442609  0.96204310    -0.38200
C857        C  0.40938204  0.67716475  0.79172740    -0.04900
C858        C  0.41164036  0.68763160  0.83088078    -0.02000
C859        C  0.41026209  0.71208686  0.83753607     0.03000
C860        C  0.40632977  0.72637621  0.80511012    -0.04900
C861        C  0.40528600  0.71665002  0.76585873    -0.02000
C862        C  0.40716679  0.69242610  0.75911475     0.03000
C863        C  0.41467474  0.67298260  0.86477655     0.37600
C864        C  0.40107840  0.73079313  0.73238984     0.37600
C865        C  0.40753854  0.68376967  0.71823878     0.36000
C866        C  0.41304829  0.72246651  0.87821714     0.36000
N867        N  0.40789648  0.67694570  0.68563993    -0.38800
N868        N  0.41502956  0.73054185  0.91066501    -0.38800
N869        N  0.39762510  0.74199320  0.70568922    -0.38200
N870        N  0.41723306  0.66148496  0.89188628    -0.38200
C871        C  0.32339947  0.60105803  0.63449453    -0.04900
C872        C  0.29672365  0.57998898  0.64738783    -0.02000
C873        C  0.27285406  0.58193595  0.63874079     0.03000
C874        C  0.27544583  0.60500643  0.61703663    -0.04900
C875        C  0.30234334  0.62662145  0.60540464    -0.02000
C876        C  0.32622974  0.62475983  0.61452916     0.03000
C877        C  0.29386797  0.55626048  0.66990143     0.37600
C878        C  0.30556216  0.65115810  0.58476738     0.37600
C879        C  0.35381494  0.64780682  0.60507646     0.36000
C880        C  0.24554545  0.55963016  0.65098615     0.36000
N881        N  0.37581356  0.66632838  0.59788419    -0.38800
N882        N  0.22376136  0.54186745  0.66078657    -0.38800
N883        N  0.30815915  0.67072009  0.56828488    -0.38200
N884        N  0.29162556  0.53741768  0.68799949    -0.38200
C885        C  0.40010801  0.67118326  0.29433050    -0.04900
C886        C  0.37618305  0.66990957  0.31110660    -0.02000
C887        C  0.37479239  0.69458295  0.31570200     0.03000
C888        C  0.39728375  0.72078018  0.30320494    -0.04900
C889        C  0.42063245  0.72175650  0.28467603    -0.02000
C890        C  0.42200718  0.69705159  0.28025842     0.03000
C891        C  0.35318284  0.64325783  0.32428865     0.37600
C892        C  0.44392273  0.74835974  0.27198761     0.37600
C893        C  0.44600754  0.69823313  0.26098357     0.36000
C894        C  0.35017406  0.69301298  0.33357817     0.36000
N895        N  0.46515601  0.69923278  0.24552971    -0.38800
N896        N  0.33058647  0.69178980  0.34789187    -0.38800
N897        N  0.46250856  0.76959862  0.26190621    -0.38200
N898        N  0.33480770  0.62203981  0.33488015    -0.38200
C899        C  0.32362827  0.59946932  0.13157946    -0.04900
C900        C  0.30675174  0.58169436  0.10048901    -0.02000
C901        C  0.28205544  0.58138641  0.08950190     0.03000
C902        C  0.27394627  0.59875122  0.10950492    -0.04900
C903        C  0.29069778  0.61653782  0.14040705    -0.02000
C904        C  0.31562461  0.61724219  0.15107252     0.03000
C905        C  0.31403926  0.56285344  0.08071108     0.37600
C906        C  0.28266054  0.63467842  0.16059579     0.37600
C907        C  0.33331083  0.63690064  0.18160788     0.36000
C908        C  0.26438039  0.56236367  0.05840218     0.36000
N909        N  0.34733162  0.65252782  0.20600230    -0.38800
N910        N  0.25023824  0.54720047  0.03367710    -0.38800
N911        N  0.27621652  0.64907526  0.17679161    -0.38200
N912        N  0.31979517  0.54782018  0.06484553    -0.38200
C913        C  0.42770041  0.57542859  0.91743363    -0.04900
C914        C  0.41036514  0.54968407  0.93699665    -0.02000
C915        C  0.40626366  0.54895959  0.97871594     0.03000
C916        C  0.41907284  0.57394114  0.00136783    -0.04900
C917        C  0.43604906  0.59970534  0.98188154    -0.02000
C918        C  0.44065961  0.60042434  0.94024344     0.03000
C919        C  0.39588892  0.52389369  0.91416391     0.37600
C920        C  0.44957898  0.62546006  0.00486777     0.37600
C921        C  0.45985918  0.62681779  0.92127995     0.36000
C922        C  0.38803340  0.52246494  0.99821854     0.36000
N923        N  0.47530233  0.64781487  0.90615235    -0.38800
N924        N  0.37348152  0.50137627  0.01382768    -0.38800
N925        N  0.46035489  0.64604052  0.02312555    -0.38200
N926        N  0.38429362  0.50329824  0.89604220    -0.38200
C927        C  0.41607434  0.57014100  0.50215568    -0.04900
C928        C  0.42862231  0.59615938  0.48209351    -0.02000
C929        C  0.43374608  0.59759206  0.44055098     0.03000
C930        C  0.42635715  0.57298687  0.41825220    -0.04900
C931        C  0.41418712  0.54697399  0.43850843    -0.02000
C932        C  0.40874870  0.54554509  0.47998164     0.03000
C933        C  0.43726770  0.62179753  0.50433962     0.37600
C934        C  0.40661637  0.52136705  0.41678764     0.37600
C935        C  0.39452001  0.51842920  0.49946234     0.36000
C936        C  0.44781666  0.62476812  0.42121637     0.36000
N937        N  0.38310226  0.49678379  0.51488798    -0.38800
N938        N  0.45904322  0.64641004  0.40576162    -0.38800
N939        N  0.40075653  0.50092639  0.39966382    -0.38200
N940        N  0.44419045  0.64229925  0.52193680    -0.38200
C941        C  0.59280879  0.32001651  0.04051834    -0.04900
C942        C  0.56890539  0.29335552  0.03508752    -0.02000
C943        C  0.57072247  0.26893411  0.03970396     0.03000
C944        C  0.59649057  0.27109791  0.04955751    -0.04900
C945        C  0.62049760  0.29779694  0.05405747    -0.02000
C946        C  0.61869395  0.32216281  0.04938558     0.03000
C947        C  0.54247253  0.29108368  0.02443853     0.37600
C948        C  0.64697833  0.30012295  0.06467907     0.37600
C949        C  0.64327376  0.34944726  0.05539047     0.36000
C950        C  0.54578348  0.24161043  0.03654377     0.36000
N951        N  0.66287275  0.37118285  0.06037163    -0.38800
N952        N  0.52583718  0.21983971  0.03419365    -0.38800
N953        N  0.66800513  0.30186089  0.07331726    -0.38200
N954        N  0.52144012  0.28937552  0.01592045    -0.38200
C955        C  0.67290018  0.39994163  0.88103136    -0.04900
C956        C  0.69893540  0.42223012  0.89391236    -0.02000
C957        C  0.72363100  0.42157422  0.88668778     0.03000
C958        C  0.72247447  0.39885660  0.86573537    -0.04900
C959        C  0.69629889  0.37639833  0.85315717    -0.02000
C960        C  0.67159919  0.37695983  0.86087481     0.03000
C961        C  0.70030287  0.44616571  0.91406321     0.37600
C962        C  0.69471421  0.35240918  0.83280031     0.37600
C963        C  0.64479509  0.35362001  0.84890291     0.36000
C964        C  0.75026143  0.44473993  0.89966135     0.36000
N965        N  0.62343844  0.33497748  0.83932531    -0.38800
N966        N  0.77149402  0.46315045  0.91015148    -0.38800
N967        N  0.69350610  0.33333502  0.81653549    -0.38200
N968        N  0.70138802  0.46531569  0.92989196    -0.38200
C969        C  0.52954014  0.50232737  0.85531770    -0.04900
C970        C  0.50234201  0.49706197  0.86452272    -0.02000
C971        C  0.48930387  0.50798624  0.84021928     0.03000
C972        C  0.50309387  0.52447266  0.80620240    -0.04900
C973        C  0.53038247  0.53030109  0.79739003    -0.02000
C974        C  0.54369090  0.51968451  0.82206753     0.03000
C975        C  0.48672195  0.47916576  0.89781922     0.37600
C976        C  0.54501840  0.54757253  0.76322601     0.37600
C977        C  0.57229996  0.52729928  0.81352863     0.36000
C978        C  0.46079956  0.50077102  0.84935813     0.36000
N979        N  0.59515965  0.53347234  0.80680117    -0.38800
N980        N  0.43813395  0.49499735  0.85677123    -0.38800
N981        N  0.55674764  0.56127089  0.73591232    -0.38200
N982        N  0.47400488  0.46496207  0.92421521    -0.38200
C983        C  0.48742731  0.46561829  0.05374536    -0.04900
C984        C  0.47110706  0.45291841  0.08816888    -0.02000
C985        C  0.46030655  0.46698917  0.11080857     0.03000
C986        C  0.46434844  0.49304263  0.09784704    -0.04900
C987        C  0.47918380  0.50492184  0.06212200    -0.02000
C988        C  0.49152998  0.49185869  0.04105567     0.03000
C989        C  0.46458121  0.42498521  0.09945970     0.37600
C990        C  0.48276389  0.53131248  0.04769222     0.37600
C991        C  0.51026076  0.50666814  0.00811496     0.36000
C992        C  0.44465069  0.45451081  0.14704785     0.36000
N993        N  0.52546075  0.51863295  0.98222944    -0.38800
N994        N  0.43220131  0.44467206  0.17605721    -0.38800
N995        N  0.48544951  0.55220732  0.03594074    -0.38200
N996        N  0.45892141  0.40246858  0.10802637    -0.38200
C997        C  0.58873706  0.32082572  0.54458174    -0.04900
C998        C  0.58128746  0.30790252  0.58254072    -0.02000
C999        C  0.58118447  0.28273694  0.58948019     0.03000
C1000       C  0.59133949  0.27151445  0.56012177    -0.04900
C1001       C  0.59875158  0.28418464  0.52221966    -0.02000
C1002       C  0.59632582  0.30793204  0.51388684     0.03000
C1003       C  0.57473224  0.32078983  0.61543145     0.37600
C1004       C  0.60994594  0.27356482  0.49214723     0.37600
C1005       C  0.60099933  0.31833063  0.47313962     0.36000
C1006       C  0.56993387  0.26809070  0.62698011     0.36000
N1007       N  0.60457484  0.32636419  0.44054023    -0.38800
N1008       N  0.56086689  0.25636726  0.65674474    -0.38800
N1009       N  0.61909618  0.26529846  0.46821666    -0.38200
N1010       N  0.56970591  0.33099840  0.64193400    -0.38200
C1011       C  0.67369012  0.39881859  0.38613415    -0.04900
C1012       C  0.67183939  0.38033516  0.35573850    -0.02000
C1013       C  0.69587367  0.37964227  0.34365565     0.03000
C1014       C  0.72219282  0.39778870  0.36163732    -0.04900
C1015       C  0.72380468  0.41601503  0.39258024    -0.02000
C1016       C  0.69967562  0.41643574  0.40479573     0.03000
C1017       C  0.64494661  0.36118212  0.33800695     0.37600
C1018       C  0.75039294  0.43518717  0.41108053     0.37600
C1019       C  0.70176625  0.43562951  0.43611391     0.36000
C1020       C  0.69310928  0.35951547  0.31343087     0.36000
N1021       N  0.70335731  0.45084374  0.46113117    -0.38800
N1022       N  0.69081299  0.34346436  0.28930520    -0.38800
N1023       N  0.77154618  0.45047660  0.42594296    -0.38200
N1024       N  0.62348221  0.34585549  0.32399202    -0.38200
C1025       C  0.57439339  0.42282961  0.75198183    -0.04900
C1026       C  0.58578728  0.44778917  0.72943006    -0.02000
C1027       C  0.58128759  0.44681570  0.68772057     0.03000
C1028       C  0.56513649  0.42081941  0.66796948    -0.04900
C1029       C  0.55335306  0.39586925  0.69077837    -0.02000
C1030       C  0.55796019  0.39690144  0.73248133     0.03000
C1031       C  0.60297837  0.47457336  0.74895182     0.37600
C1032       C  0.53553517  0.36906450  0.67170238     0.37600
C1033       C  0.54469753  0.37128502  0.75568060     0.36000
C1034       C  0.59430254  0.47266398  0.66502192     0.36000
N1035       N  0.53401496  0.35091270  0.77430470    -0.38800
N1036       N  0.60471150  0.49329354  0.64696132    -0.38800
N1037       N  0.52125862  0.34767004  0.65655747    -0.38200
N1038       N  0.61673914  0.49593520  0.76447658    -0.38200
C1039       C  0.57804296  0.42162212  0.25310110    -0.04900
C1040       C  0.55192167  0.41596465  0.23778607    -0.02000
C1041       C  0.54704426  0.41370632  0.19617933     0.03000
C1042       C  0.56785155  0.41616593  0.16940458    -0.04900
C1043       C  0.59349405  0.42049596  0.18476750    -0.02000
C1044       C  0.59872083  0.42361628  0.22634244     0.03000
C1045       C  0.52954595  0.41134918  0.26487502     0.37600
C1046       C  0.61490817  0.42256979  0.15771099     0.37600
C1047       C  0.62583754  0.42996348  0.24135220     0.36000
C1048       C  0.52011386  0.40778917  0.18108440     0.36000
N1049       N  0.64750050  0.43512257  0.25330572    -0.38800
N1050       N  0.49851754  0.40295799  0.16936559    -0.38800
N1051       N  0.63191808  0.42407163  0.13613124    -0.38200
N1052       N  0.51167390  0.40768968  0.28637487    -0.38200
C1053       C  0.51471335  0.53524347  0.30006320    -0.04900
C1054       C  0.52209780  0.54255471  0.34083487    -0.02000
C1055       C  0.53460043  0.53000383  0.36321420     0.03000
C1056       C  0.54027776  0.51028020  0.34524551    -0.04900
C1057       C  0.53650161  0.50598937  0.30336760    -0.02000
C1058       C  0.52334639  0.51783248  0.28114002     0.03000
C1059       C  0.51717775  0.56323381  0.36004703     0.37600
C1060       C  0.54555637  0.48886484  0.28258371     0.37600
C1061       C  0.51753631  0.51051222  0.23911409     0.36000
C1062       C  0.54277859  0.53833088  0.40438967     0.36000
N1063       N  0.51298849  0.50448178  0.20569342    -0.38800
N1064       N  0.54961804  0.54518657  0.43708947    -0.38800
N1065       N  0.55320793  0.47579701  0.26543400    -0.38200
N1066       N  0.51331923  0.57973665  0.37548478    -0.38200
C1067       C  0.48201144  0.46312774  0.54729599    -0.04900
C1068       C  0.47527680  0.48253182  0.53047121    -0.02000
C1069       C  0.46394895  0.49534531  0.55457129     0.03000
C1070       C  0.45694901  0.48735486  0.59507766    -0.04900
C1071       C  0.46092982  0.46592958  0.61074513    -0.02000
C1072       C  0.47343197  0.45394101  0.58716498     0.03000
C1073       C  0.48071032  0.49034866  0.48862547     0.37600
C1074       C  0.45235354  0.45630343  0.65136313     0.37600
C1075       C  0.47717186  0.43190996  0.60420865     0.36000
C1076       C  0.46209721  0.51871759  0.53825401     0.36000
N1077       N  0.48019128  0.41440350  0.61792935    -0.38800
N1078       N  0.46114772  0.53758379  0.52514984    -0.38800
N1079       N  0.44553674  0.44866478  0.68378021    -0.38200
N1080       N  0.48454871  0.49640087  0.45518258    -0.38200
loop_ 
_geom_bond_atom_site_label_1 
_geom_bond_atom_site_label_2 
_geom_bond_distance 
_geom_bond_site_symmetry_2 
_ccdc_geom_bond_type 
O1           Mg3   2.123       .  S
O1           Mg9   2.144       .  S
O1           C36   1.239       .  S
C2           O15   1.235       .  S
C2           O39   1.267       .  A
C2           H41   1.082       .  S
Mg3          O32   2.150       .  S
Mg3          O47   2.335       .  S
Mg3          O43   2.266       .  S
Mg3          O14   2.317       .  S
O4          Mg46   2.149       .  S
O4          Mg29   2.128       .  S
O4           C25   1.235       .  S
O5           C36   1.272       .  A
O5          Mg29   2.292       .  S
C6            O8   1.269       .  A
C6           O20   1.281       .  A
C6         C1056   1.501       .  S
O7           C35   1.272       .  A
O7           Mg9   2.297       .  S
O8          Mg40   2.240       .  S
Mg9          O15   2.102       .  S
Mg9          O23   2.216       .  S
Mg9          O11   2.253       .  S
C10          O48   1.277       .  A
C10          O16   1.276       .  A
C10        C1067   1.504       .  S
O11          C18   1.268       .  A
H12          C25   1.080       .  S
C13          O27   1.237       .  S
C13          O28   1.272       .  A
C13          H38   1.080       .  S
O14          C37   1.273       .  A
O15         Mg29   2.145       .  S
O16         Mg46   2.295       .  S
C17          O30   1.279       .  A
C17          O22   1.279       .  A
C17        C1028   1.498       .  S
C18          O45   1.276       .  A
C18         C997   1.501       .  S
Mg19         O26   2.165       .  S
Mg19         O27   2.169       .  S
Mg19         O20   2.350       .  S
Mg19         O21   2.288       .  S
Mg19         O48   2.287       .  S
O21          C25   1.268       .  A
O22         Mg29   2.318       .  S
O23          C42   1.266       .  A
O24          C44   1.277       .  A
O24         Mg40   2.319       .  S
O26         Mg40   2.153       .  S
O26          C37   1.237       .  S
O27         Mg46   2.168       .  S
O28         Mg40   2.305       .  S
Mg29         O45   2.288       .  S
O30         Mg46   2.298       .  S
H31          C36   1.080       .  S
O32         Mg40   2.132       .  S
O32          C35   1.238       .  S
H33          C35   1.080       .  S
H34          C37   1.082       .  S
O39         Mg46   2.278       .  S
C42          O47   1.278       .  A
C42        C1011   1.482       .  S
O43          C44   1.272       .  A
C44        C1039   1.492       .  S
O49         Mg51   2.138       .  S
O49         Mg57   2.142       .  S
O49          C84   1.240       .  S
C50          O63   1.233       .  S
C50          O87   1.265       .  A
C50          H89   1.082       .  S
Mg51         O80   2.160       .  S
Mg51         O95   2.344       .  S
Mg51         O91   2.285       .  S
Mg51         O62   2.317       .  S
O52         Mg94   2.152       .  S
O52         Mg77   2.131       .  S
O52          C73   1.235       .  S
O53          C84   1.273       .  A
O53         Mg77   2.299   1_556  S
C54          O56   1.268       .  A
C54          O68   1.276       .  A
C54         C969   1.503       .  S
O55          C83   1.273       .  A
O55         Mg57   2.300       .  S
O56         Mg88   2.249       .  S
Mg57         O63   2.098   1_556  S
Mg57         O71   2.199       .  S
Mg57         O59   2.267   1_556  S
C58          O96   1.273   1_554  A
C58          O64   1.276       .  A
C58         C983   1.491       .  S
O59          C66   1.269       .  A
H60          C73   1.080       .  S
C61          O75   1.237       .  S
C61          O76   1.273       .  A
C61          H86   1.080       .  S
O62          C85   1.273       .  A
O63         Mg77   2.137       .  S
O64         Mg94   2.310       .  S
C65          O78   1.277       .  A
C65          O70   1.279       .  A
C65        C1042   1.490       .  S
C66          O93   1.275       .  A
C66         C941   1.480       .  S
Mg67         O74   2.170       .  S
Mg67         O75   2.150       .  S
Mg67         O68   2.324       .  S
Mg67         O69   2.292       .  S
Mg67         O96   2.264       .  S
O69          C73   1.269   1_556  A
O70         Mg77   2.322       .  S
O71          C90   1.263       .  A
O72          C92   1.274       .  A
O72         Mg88   2.307       .  S
O74         Mg88   2.148       .  S
O74          C85   1.237       .  S
O75         Mg94   2.170   1_556  S
O76         Mg88   2.317       .  S
Mg77         O93   2.287       .  S
O78         Mg94   2.285       .  S
H79          C84   1.080       .  S
O80         Mg88   2.137       .  S
O80          C83   1.239       .  S
H81          C83   1.080       .  S
H82          C85   1.082       .  S
O87         Mg94   2.277       .  S
C90          O95   1.279       .  A
C90         C955   1.473       .  S
O91          C92   1.275       .  A
C92        C1025   1.492       .  S
O97         Mg99   2.131       .  S
O97        Mg105   2.147       .  S
O97         C132   1.239       .  S
C98         O111   1.235       .  S
C98         O135   1.267       .  A
C98         H137   1.082       .  S
Mg99        O128   2.165       .  S
Mg99        O143   2.341       .  S
Mg99        O139   2.278       .  S
Mg99        O110   2.312       .  S
O100       Mg142   2.155       .  S
O100       Mg125   2.136       .  S
O100        C121   1.235       .  S
O101        C132   1.272       .  A
O101       Mg125   2.295       .  S
C102        O104   1.270       .  A
C102        O116   1.278       .  A
C102        C986   1.484       .  S
O103        C131   1.272       .  A
O103       Mg105   2.296       .  S
O104       Mg136   2.245       .  S
Mg105       O111   2.101       .  S
Mg105       O119   2.194       .  S
Mg105       O107   2.270       .  S
C106        O144   1.276       .  A
C106        O112   1.276       .  A
C106       C1053   1.508       .  S
O107        C114   1.269       .  A
H108        C121   1.080       .  S
C109        O123   1.237       .  S
C109        O124   1.272       .  A
C109        H134   1.080       .  S
O110        C133   1.272       .  A
O111       Mg125   2.139       .  S
O112       Mg142   2.304       .  S
C113        O126   1.277       .  A
C113        O118   1.279       .  A
C113        C930   1.499       .  S
C114        O141   1.276       .  A
C114        C885   1.483       .  S
Mg115       O122   2.168       .  S
Mg115       O123   2.160       .  S
Mg115       O116   2.333       .  S
Mg115       O117   2.288       .  S
Mg115       O144   2.284       .  S
O117        C121   1.268       .  A
O118       Mg125   2.311       .  S
O119        C138   1.264       .  A
O120        C140   1.275       .  A
O120       Mg136   2.307       .  S
O122       Mg136   2.154       .  S
O122        C133   1.236       .  S
O123       Mg142   2.163       .  S
O124       Mg136   2.306       .  S
Mg125       O141   2.304       .  S
O126       Mg142   2.288       .  S
H127        C132   1.080       .  S
O128       Mg136   2.138       .  S
O128        C131   1.238       .  S
H129        C131   1.080       .  S
H130        C133   1.082       .  S
O135       Mg142   2.280       .  S
C138        O143   1.279       .  A
C138        C899   1.489       .  S
O139        C140   1.274       .  A
C140        C916   1.489       .  S
O145       Mg147   2.123       .  S
O145       Mg153   2.145       .  S
O145        C180   1.241       .  S
C146        O183   1.266       .  A
C146        H185   1.082       .  S
C146        O159   1.263       .  A
Mg147       O176   2.154       .  S
Mg147       O191   2.369       .  S
Mg147       O187   2.279       .  S
Mg147       O158   2.332       .  S
O148       Mg190   2.151       .  S
O148       Mg173   2.116       .  S
O148        C169   1.234       .  S
O149        C180   1.274       .  A
O149       Mg173   2.299       .  S
C150        O152   1.269       .  A
C150        O164   1.279       .  A
C150       C1070   1.495       .  S
O151        C179   1.272       .  A
O151       Mg153   2.304       .  S
O152       Mg184   2.240       .  S
Mg153       O167   2.199       .  S
Mg153       O155   2.263       .  S
Mg153       O159   2.163       .  S
C154        O192   1.280       .  A
C154        O160   1.273       .  A
C154        C972   1.496       .  S
O155        C162   1.269       .  A
H156        C169   1.080       .  S
C157        O171   1.236       .  S
C157        O172   1.271       .  A
C157        H182   1.080       .  S
O158        C181   1.276       .  A
O159       Mg173   2.214       .  S
O160       Mg190   2.278       .  S
C161        O174   1.277       .  A
C161        O166   1.278       .  A
C161        C913   1.494       .  S
C162        O189   1.275       .  A
C162        C857   1.493       .  S
Mg163       O170   2.195       .  S
Mg163       O171   2.158       .  S
Mg163       O164   2.332       .  S
Mg163       O165   2.290       .  S
Mg163       O192   2.321       .  S
O165        C169   1.267       .  A
O166       Mg173   2.309       .  S
O167        C186   1.264       .  A
O168        C188   1.275       .  A
O168       Mg184   2.310       .  S
O170       Mg184   2.165       .  S
O170        C181   1.238       .  S
O171       Mg190   2.166       .  S
O172       Mg184   2.304       .  S
Mg173       O189   2.282       .  S
O174       Mg190   2.284       .  S
H175        C180   1.080       .  S
O176       Mg184   2.149       .  S
O176        C179   1.238       .  S
H177        C179   1.080       .  S
H178        C181   1.082       .  S
O183       Mg190   2.284       .  S
C186        O191   1.283       .  A
C186        C871   1.480       .  S
O187        C188   1.274       .  A
C188        C927   1.496       .  S
O193       Mg195   2.129       .  S
O193       Mg201   2.145       .  S
O193        C228   1.240       .  S
C194        O207   1.235       .  S
C194        O231   1.267       .  A
C194        H233   1.082       .  S
Mg195       O224   2.154       .  S
Mg195       O239   2.330       .  S
Mg195       O235   2.275       .  S
Mg195       O206   2.314       .  S
O196       Mg238   2.151       .  S
O196       Mg221   2.139       .  S
O196        C217   1.235       .  S
O197        C228   1.273       .  A
O197       Mg221   2.296   1_554  S
C198        O200   1.268       .  A
C198        O212   1.280       .  A
C198        C801   1.493       .  S
O199        C227   1.272       .  A
O199       Mg201   2.295       .  S
O200       Mg232   2.231       .  S
Mg201       O207   2.097   1_554  S
Mg201       O215   2.209       .  S
Mg201       O203   2.249   1_554  S
C202        O240   1.278   1_556  A
C202        O208   1.279       .  A
C202        C846   1.502       .  S
O203        C210   1.267       .  A
H204        C217   1.081       .  S
C205        O219   1.237       .  S
C205        O220   1.272       .  A
C205        H230   1.080       .  S
O206        C229   1.273       .  A
O207       Mg221   2.142       .  S
O208       Mg238   2.319       .  S
C209        O222   1.279       .  A
C209        O214   1.280       .  A
C209        C815   1.494       .  S
C210        O237   1.277       .  A
C210        C787   1.502       .  S
Mg211       O218   2.172       .  S
Mg211       O219   2.162       .  S
Mg211       O212   2.349       .  S
Mg211       O213   2.294       .  S
Mg211       O240   2.290       .  S
O213        C217   1.269   1_554  A
O214       Mg221   2.321       .  S
O215        C234   1.265       .  A
O216        C236   1.275       .  A
O216       Mg232   2.318       .  S
O218       Mg232   2.159       .  S
O218        C229   1.237       .  S
O219       Mg238   2.174   1_554  S
O220       Mg232   2.308       .  S
Mg221       O237   2.310       .  S
O222       Mg238   2.298       .  S
H223        C228   1.081       .  S
O224       Mg232   2.128       .  S
O224        C227   1.239       .  S
H225        C227   1.081       .  S
H226        C229   1.082       .  S
O231       Mg238   2.280       .  S
C234        O239   1.278       .  A
C234        C902   1.478       .  S
O235        C236   1.273       .  A
C236        C832   1.493       .  S
O241       Mg243   2.131       .  S
O241       Mg249   2.136       .  S
O241        C276   1.240       .  S
C242        O255   1.234       .  S
C242        O279   1.266       .  A
C242        H281   1.082       .  S
Mg243       O272   2.161       .  S
Mg243       O287   2.350       .  S
Mg243       O283   2.273       .  S
Mg243       O254   2.321       .  S
O244       Mg286   2.155       .  S
O244       Mg269   2.132       .  S
O244        C265   1.235       .  S
O245        C276   1.273       .  A
O245       Mg269   2.298       .  S
C246        O248   1.270       .  A
C246        O260   1.276       .  A
C246        C759   1.497       .  S
O247        C275   1.273       .  A
O247       Mg249   2.307       .  S
O248       Mg280   2.263       .  S
Mg249       O255   2.100       .  S
Mg249       O263   2.214       .  S
Mg249       O251   2.250       .  S
C250        O288   1.275       .  A
C250        O256   1.277       .  A
C250        C776   1.498       .  S
O251        C258   1.268       .  A
H252        C265   1.081       .  S
C253        O267   1.237       .  S
C253        O268   1.273       .  A
C253        H278   1.080       .  S
O254        C277   1.273       .  A
O255       Mg269   2.145       .  S
O256       Mg286   2.314       .  S
C257        O270   1.279       .  A
C257        O262   1.280       .  A
C257        C829   1.497       .  S
C258        O285   1.276       .  A
C258        C748   1.482       .  S
Mg259       O266   2.172       .  S
Mg259       O267   2.153       .  S
Mg259       O260   2.317       .  S
Mg259       O261   2.286       .  S
Mg259       O288   2.278       .  S
O261        C265   1.268       .  A
O262       Mg269   2.320       .  S
O263        C282   1.264       .  A
O264        C284   1.274       .  A
O264       Mg280   2.305       .  S
O266       Mg280   2.147       .  S
O266        C277   1.236       .  S
O267       Mg286   2.165       .  S
O268       Mg280   2.315       .  S
Mg269       O285   2.302       .  S
O270       Mg286   2.292       .  S
H271        C276   1.080       .  S
O272       Mg280   2.149       .  S
O272        C275   1.239       .  S
H273        C275   1.080       .  S
H274        C277   1.082       .  S
O279       Mg286   2.276       .  S
C282        O287   1.280       .  A
C282        C874   1.487       .  S
O283        C284   1.273       .  A
C284        C818   1.495       .  S
O289       Mg291   2.133       .  S
O289       Mg297   2.150       .  S
O289        C324   1.240       .  S
C290        O303   1.235       .  S
C290        O327   1.267       .  A
C290        H329   1.082       .  S
Mg291       O320   2.158       .  S
Mg291       O335   2.338       .  S
Mg291       O331   2.282       .  S
Mg291       O302   2.318       .  S
O292       Mg334   2.150       .  S
O292       Mg317   2.130       .  S
O292        C313   1.234       .  S
O293        C324   1.273       .  A
O293       Mg317   2.299       .  S
C294        O296   1.269       .  A
C294        O308   1.278       .  A
C294        C773   1.489       .  S
O295        C323   1.272       .  A
O295       Mg297   2.299       .  S
O296       Mg328   2.243       .  S
Mg297       O303   2.106       .  S
Mg297       O311   2.217       .  S
Mg297       O299   2.264       .  S
C298        O336   1.278       .  A
C298        O304   1.277       .  A
C298        C804   1.507       .  S
O299        C306   1.269       .  A
H300        C313   1.080       .  S
C301        O315   1.237       .  S
C301        O316   1.272       .  A
C301        H326   1.080       .  S
O302        C325   1.273       .  A
O303       Mg317   2.141       .  S
O304       Mg334   2.311       .  S
C305        O318   1.277       .  A
C305        O310   1.278       .  A
C305        C731   1.493       .  S
C306        O333   1.274       .  A
C306        C706   1.480       .  S
Mg307       O314   2.177       .  S
Mg307       O315   2.160       .  S
Mg307       O308   2.333       .  S
Mg307       O309   2.286       .  S
Mg307       O336   2.292       .  S
O309        C313   1.267       .  A
O310       Mg317   2.308       .  S
O311        C330   1.266       .  A
O312        C332   1.276       .  A
O312       Mg328   2.313       .  S
O314       Mg328   2.156       .  S
O314        C325   1.236       .  S
O315       Mg334   2.159       .  S
O316       Mg328   2.305       .  S
Mg317       O333   2.288       .  S
O318       Mg334   2.282       .  S
H319        C324   1.080       .  S
O320       Mg328   2.142       .  S
O320        C323   1.238       .  S
H321        C323   1.080       .  S
H322        C325   1.082       .  S
O327       Mg334   2.281       .  S
C330        O335   1.279       .  A
C330       C1014   1.494       .  S
O331        C332   1.274       .  A
C332        C717   1.500       .  S
O337       Mg339   2.126       .  S
O337       Mg345   2.139       .  S
O337        C372   1.238       .  S
C338        O351   1.236       .  S
C338        O375   1.267       .  A
C338        H377   1.082       .  S
Mg339       O368   2.156       .  S
Mg339       O383   2.343       .  S
Mg339       O379   2.264       .  S
Mg339       O350   2.320       .  S
O340       Mg382   2.143       .  S
O340       Mg365   2.137       .  S
O340        C361   1.235       .  S
O341        C372   1.271       .  A
O341       Mg365   2.293       .  S
C342        O344   1.269       .  A
C342        O356   1.281       .  A
C342        C843   1.494       .  S
O343        C371   1.273       .  A
O343       Mg345   2.307       .  S
O344       Mg376   2.243       .  S
Mg345       O351   2.094       .  S
Mg345       O359   2.190       .  S
Mg345       O347   2.265       .  S
C346        O384   1.278       .  A
C346        O352   1.276       .  A
C346        C762   1.490       .  S
O347        C354   1.269       .  A
H348        C361   1.080       .  S
C349        O363   1.236       .  S
C349        O364   1.272       .  A
C349        H374   1.080       .  S
O350        C373   1.273       .  A
O351       Mg365   2.142       .  S
O352       Mg382   2.294       .  S
C353        O366   1.279       .  A
C353        O358   1.277       .  A
C353        C720   1.507       .  S
C354        O381   1.275       .  A
C354        C692   1.487       .  S
Mg355       O362   2.174       .  S
Mg355       O363   2.163       .  S
Mg355       O356   2.357       .  S
Mg355       O357   2.296       .  S
Mg355       O384   2.296       .  S
O357        C361   1.269       .  A
O358       Mg365   2.306       .  S
O359        C378   1.262       .  A
O360        C380   1.274       .  A
O360       Mg376   2.307       .  S
O362       Mg376   2.156       .  S
O362        C373   1.237       .  S
O363       Mg382   2.175       .  S
O364       Mg376   2.307       .  S
Mg365       O381   2.299       .  S
O366       Mg382   2.303       .  S
H367        C372   1.081       .  S
O368       Mg376   2.146       .  S
O368        C371   1.239       .  S
H369        C371   1.080       .  S
H370        C373   1.082       .  S
O375       Mg382   2.279       .  S
C378        O383   1.279       .  A
C378        C958   1.480       .  S
O379        C380   1.272       .  A
C380        C734   1.490       .  S
O385       Mg387   2.125       .  S
O385       Mg393   2.128       .  S
O385        C420   1.240       .  S
C386        O399   1.235       .  S
C386        O423   1.266       .  A
C386        H425   1.082       .  S
Mg387       O416   2.152       .  S
Mg387       O431   2.351       .  S
Mg387       O427   2.269   1_554  S
Mg387       O398   2.325       .  S
O388       Mg430   2.142       .  S
O388       Mg413   2.126       .  S
O388        C409   1.236       .  S
O389        C420   1.273       .  A
O389       Mg413   2.300       .  S
C390        O392   1.266       .  A
C390        O404   1.275       .  A
C390        C675   1.487       .  S
O391        C419   1.274       .  A
O391       Mg393   2.304       .  S
O392       Mg424   2.233       .  S
Mg393       O399   2.097       .  S
Mg393       O407   2.199       .  S
Mg393       O395   2.252       .  S
C394        O432   1.275       .  A
C394        O400   1.275       .  A
C394        C661   1.491       .  S
O395        C402   1.267       .  A
H396        C409   1.082       .  S
C397        O411   1.237       .  S
C397        O412   1.274       .  A
C397        H422   1.081       .  S
O398        C421   1.274       .  A
O399       Mg413   2.137       .  S
O400       Mg430   2.295       .  S
C401        O414   1.276       .  A
C401        O406   1.280       .  A
C401        C647   1.490       .  S
C402        O429   1.276       .  A
C402        C703   1.491       .  S
Mg403       O410   2.182       .  S
Mg403       O411   2.142       .  S
Mg403       O404   2.310       .  S
Mg403       O405   2.295       .  S
Mg403       O432   2.295       .  S
O405        C409   1.269       .  A
O406       Mg413   2.324       .  S
O407        C426   1.263       .  A
O408        C428   1.275       .  A
O408       Mg424   2.317   1_556  S
O410       Mg424   2.152       .  S
O410        C421   1.236       .  S
O411       Mg430   2.162       .  S
O412       Mg424   2.318       .  S
Mg413       O429   2.295       .  S
O414       Mg430   2.280       .  S
H415        C420   1.081       .  S
O416       Mg424   2.133       .  S
O416        C419   1.240       .  S
H417        C419   1.082       .  S
H418        C421   1.082       .  S
O423       Mg430   2.276       .  S
C426        O431   1.278       .  A
C426        C944   1.478       .  S
O427        C428   1.272       .  A
C428        C636   1.494       .  S
O433       Mg435   2.137       .  S
O433       Mg441   2.121       .  S
O433        C468   1.240       .  S
C434        O447   1.234       .  S
C434        O471   1.266       .  A
C434        H473   1.082       .  S
Mg435       O464   2.147       .  S
Mg435       O479   2.355       .  S
Mg435       O475   2.276       .  S
Mg435       O446   2.322       .  S
O436       Mg478   2.153       .  S
O436       Mg461   2.146       .  S
O436        C457   1.236       .  S
O437        C468   1.273       .  A
O437       Mg461   2.302       .  S
C438        O440   1.269       .  A
C438        O452   1.277       .  A
C438        C619   1.497       .  S
O439        C467   1.274       .  A
O439       Mg441   2.309       .  S
O440       Mg472   2.257       .  S
Mg441       O447   2.102       .  S
Mg441       O455   2.199       .  S
Mg441       O443   2.251       .  S
C442        O480   1.276       .  A
C442        O448   1.275       .  A
C442        C605   1.498       .  S
O443        C450   1.267       .  A
H444        C457   1.082       .  S
C445        O459   1.238       .  S
C445        O460   1.274       .  A
C445        H470   1.081       .  S
O446        C469   1.274       .  A
O447       Mg461   2.141       .  S
O448       Mg478   2.307       .  S
C449        O462   1.276       .  A
C449        O454   1.281       .  A
C449        C633   1.498       .  S
C450        O477   1.278       .  A
C450        C689   1.493       .  S
Mg451       O458   2.170       .  S
Mg451       O459   2.145       .  S
Mg451       O452   2.325       .  S
Mg451       O453   2.297       .  S
Mg451       O480   2.291       .  S
O453        C457   1.270       .  A
O454       Mg461   2.331       .  S
O455        C474   1.262       .  A
O456        C476   1.276       .  A
O456       Mg472   2.314       .  S
O458       Mg472   2.145       .  S
O458        C469   1.238       .  S
O459       Mg478   2.166       .  S
O460       Mg472   2.319       .  S
Mg461       O477   2.317       .  S
O462       Mg478   2.274       .  S
H463        C468   1.081       .  S
O464       Mg472   2.136       .  S
O464        C467   1.239       .  S
H465        C467   1.082       .  S
H466        C469   1.081       .  S
O471       Mg478   2.280       .  S
C474        O479   1.279       .  A
C474       C1000   1.490       .  S
O475        C476   1.273       .  A
C476        C650   1.496       .  S
O481       Mg483   2.135       .  S
O481       Mg489   2.131       .  S
O481        C516   1.240       .  S
C482        O495   1.235       .  S
C482        O519   1.266       .  A
C482        H521   1.082       .  S
Mg483       O512   2.163       .  S
Mg483       O527   2.368       .  S
Mg483       O523   2.274       .  S
Mg483       O494   2.321       .  S
O484       Mg526   2.145       .  S
O484       Mg509   2.124       .  S
O484        C505   1.236       .  S
O485        C516   1.273       .  A
O485       Mg509   2.302       .  S
C486        O488   1.272       .  A
C486        O500   1.276       .  A
C486        C664   1.499       .  S
O487        C515   1.274       .  A
O487       Mg489   2.310       .  S
O488       Mg520   2.274       .  S
Mg489       O495   2.092       .  S
Mg489       O503   2.201       .  S
Mg489       O491   2.256       .  S
C490        O528   1.275       .  A
C490        O496   1.272       .  A
C490        C622   1.488       .  S
O491        C498   1.268       .  A
H492        C505   1.081       .  S
C493        O507   1.236       .  S
C493        O508   1.271       .  A
C493        H518   1.081       .  S
O494        C517   1.273       .  A
O495       Mg509   2.141       .  S
O496       Mg526   2.277       .  S
C497        O510   1.274       .  A
C497        O502   1.280       .  A
C497        C580   1.491       .  S
C498        O525   1.275       .  A
C498        C745   1.487       .  S
Mg499       O506   2.175       .  S
Mg499       O507   2.142       .  S
Mg499       O500   2.314       .  S
Mg499       O501   2.293       .  S
Mg499       O528   2.298       .  S
O501        C505   1.270       .  A
O502       Mg509   2.325       .  S
O503        C522   1.263       .  A
O504        C524   1.276       .  A
O504       Mg520   2.308       .  S
O506       Mg520   2.153       .  S
O506        C517   1.237       .  S
O507       Mg526   2.150       .  S
O508       Mg520   2.310       .  S
Mg509       O525   2.294       .  S
O510       Mg526   2.264       .  S
H511        C516   1.081       .  S
O512       Mg520   2.156       .  S
O512        C515   1.239       .  S
H513        C515   1.082       .  S
H514        C517   1.082       .  S
O519       Mg526   2.273       .  S
C522        O527   1.282       .  A
C522        C888   1.489       .  S
O523        C524   1.274       .  A
C524        C594   1.500       .  S
O529       Mg531   2.137       .  S
O529       Mg537   2.102       .  S
O529        C564   1.237       .  S
C530        O543   1.235       .  S
C530        O567   1.267       .  A
C530        H569   1.082       .  S
Mg531       O560   2.135       .  S
Mg531       O575   2.358       .  S
Mg531       O571   2.255       .  S
Mg531       O542   2.325       .  S
O532       Mg574   2.144       .  S
O532       Mg557   2.124       .  S
O532        C553   1.235       .  S
O533        C564   1.271       .  A
O533       Mg557   2.301       .  S
C534        O536   1.270       .  A
C534        O548   1.279       .  A
C534        C608   1.492       .  S
O535        C563   1.277       .  A
O535       Mg537   2.332       .  S
O536       Mg568   2.241       .  S
Mg537       O543   2.097       .  S
Mg537       O551   2.208       .  S
Mg537       O539   2.247       .  S
C538        O576   1.276       .  A
C538        O544   1.273       .  A
C538        C678   1.482       .  S
O539        C546   1.266       .  A
H540        C553   1.081       .  S
C541        O555   1.235       .  S
C541        O556   1.270       .  A
C541        H566   1.081       .  S
O542        C565   1.275       .  A
O543       Mg557   2.150       .  S
O544       Mg574   2.271       .  S
C545        O558   1.277       .  A
C545        O550   1.278       .  A
C545        C591   1.492       .  S
C546        O573   1.276       .  A
C546        C790   1.489       .  S
Mg547       O554   2.174       .  S
Mg547       O555   2.167       .  S
Mg547       O548   2.345       .  S
Mg547       O549   2.286       .  S
Mg547       O576   2.283       .  S
O549        C553   1.268       .  A
O550       Mg557   2.313   1_554  S
O551        C570   1.257       .  A
O552        C572   1.275       .  A
O552       Mg568   2.316       .  S
O554       Mg568   2.153       .  S
O554        C565   1.238       .  S
O555       Mg574   2.169       .  S
O556       Mg568   2.305       .  S
Mg557       O573   2.301       .  S
O558       Mg574   2.287   1_554  S
H559        C564   1.081       .  S
O560       Mg568   2.140       .  S
O560        C563   1.240       .  S
H561        C563   1.082       .  S
H562        C565   1.082       .  S
O567       Mg574   2.278       .  S
C570        O575   1.276       .  A
C570        C860   1.490       .  S
O571        C572   1.270       .  A
C572        C577   1.487       .  S
C577        C578   1.414       .  A
C577        C582   1.412       .  A
C578        C579   1.413       .  A
C578        C583   1.451       .  S
C579        C580   1.414       .  A
C579        C586   1.451       .  S
C580        C581   1.418       .  A
C581        C582   1.412       .  A
C581        C584   1.452       .  S
C582        C585   1.452       .  S
C583        N590   1.157       .  T
C584        N589   1.157       .  T
C585        N587   1.157       .  T
C586        N588   1.157       .  T
C591        C592   1.414       .  A
C591        C596   1.413       .  A
C592        C593   1.414       .  A
C592        C597   1.452       .  S
C593        C594   1.419       .  A
C593        C600   1.452       .  S
C594        C595   1.420       .  A
C595        C596   1.413       .  A
C595        C598   1.452       .  S
C596        C599   1.453       .  S
C597        N604   1.157       .  T
C598        N603   1.158       .  T
C599        N601   1.158       .  T
C600        N602   1.158       .  T
C605        C606   1.419       .  A
C605        C610   1.417   1_545  A
C606        C607   1.418   1_545  A
C606        C611   1.450       .  S
C607        C608   1.411       .  A
C607        C614   1.449       .  S
C608        C609   1.416       .  A
C609        C610   1.411       .  A
C609        C612   1.455       .  S
C610        C613   1.453       .  S
C611        N618   1.157       .  T
C612        N617   1.158       .  T
C613        N615   1.158       .  T
C614        N616   1.157       .  T
C619        C620   1.418       .  A
C619        C624   1.421       .  A
C620        C621   1.407   1_545  A
C620        C625   1.454       .  S
C621        C622   1.415       .  A
C621        C628   1.455       .  S
C622        C623   1.411       .  A
C623        C624   1.418   1_565  A
C623        C626   1.450       .  S
C624        C627   1.450       .  S
C625        N632   1.157       .  T
C626        N631   1.157       .  T
C627        N629   1.157       .  T
C628        N630   1.157       .  T
C633        C634   1.419       .  A
C633        C638   1.417       .  A
C634        C635   1.413       .  A
C634        C639   1.452       .  S
C635        C636   1.414       .  A
C635        C642   1.452       .  S
C636        C637   1.415       .  A
C637        C638   1.415       .  A
C637        C640   1.451       .  S
C638        C641   1.451       .  S
C639        N646   1.157       .  T
C640        N645   1.157       .  T
C641        N643   1.157       .  T
C642        N644   1.157       .  T
C647        C648   1.413       .  A
C647        C652   1.414       .  A
C648        C649   1.413       .  A
C648        C653   1.452       .  S
C649        C650   1.418       .  A
C649        C656   1.452       .  S
C650        C651   1.416       .  A
C651        C652   1.414       .  A
C651        C654   1.451       .  S
C652        C655   1.452       .  S
C653        N660   1.157       .  T
C654        N659   1.157       .  T
C655        N657   1.157       .  T
C656        N658   1.157       .  T
C661        C662   1.412       .  A
C661        C666   1.415       .  A
C662        C663   1.418   1_545  A
C662        C667   1.450       .  S
C663        C664   1.420       .  A
C663        C670   1.450       .  S
C664        C665   1.419       .  A
C665        C666   1.408   1_565  A
C665        C668   1.454       .  S
C666        C669   1.455       .  S
C667        N674   1.157       .  T
C668        N673   1.157       .  T
C669        N671   1.157       .  T
C670        N672   1.157       .  T
C675        C676   1.416       .  A
C675        C680   1.417   1_554  A
C676        C677   1.406   1_545  A
C676        C681   1.454       .  S
C677        C678   1.415   1_554  A
C677        C684   1.454       .  S
C678        C679   1.411       .  A
C679        C680   1.412   1_565  A
C679        C682   1.451       .  S
C680        C683   1.450       .  S
C681        N688   1.158       .  T
C682        N687   1.157       .  T
C683        N685   1.157       .  T
C684        N686   1.157       .  T
C689        C690   1.415       .  A
C689        C694   1.420       .  A
C690        C691   1.413       .  A
C690        C695   1.451       .  S
C691        C692   1.413       .  A
C691        C698   1.451       .  S
C692        C693   1.412       .  A
C693        C694   1.414       .  A
C693        C696   1.452       .  S
C694        C697   1.452       .  S
C695        N702   1.157       .  T
C696        N701   1.158       .  T
C697        N699   1.158       .  T
C698        N700   1.157       .  T
C703        C704   1.417       .  A
C703        C708   1.420       .  A
C704        C705   1.411       .  A
C704        C709   1.452       .  S
C705        C706   1.412       .  A
C705        C712   1.452       .  S
C706        C707   1.410       .  A
C707        C708   1.411       .  A
C707        C710   1.451       .  S
C708        C711   1.452       .  S
C709        N716   1.157       .  T
C710        N715   1.157       .  T
C711        N713   1.157       .  T
C712        N714   1.157       .  T
C717        C718   1.415       .  A
C717        C722   1.417       .  A
C718        C719   1.416       .  A
C718        C723   1.452       .  S
C719        C720   1.422       .  A
C719        C726   1.452       .  S
C720        C721   1.419       .  A
C721        C722   1.415       .  A
C721        C724   1.452       .  S
C722        C725   1.452       .  S
C723        N730   1.157       .  T
C724        N729   1.157       .  T
C725        N727   1.157       .  T
C726        N728   1.158       .  T
C731        C732   1.416       .  A
C731        C736   1.417       .  A
C732        C733   1.413       .  A
C732        C737   1.452       .  S
C733        C734   1.414   1_554  A
C733        C740   1.452   1_554  S
C734        C735   1.414   1_556  A
C735        C736   1.412       .  A
C735        C738   1.452   1_554  S
C736        C739   1.452       .  S
C737        N744   1.157       .  T
C738        N743   1.157       .  T
C739        N741   1.157       .  T
C740        N742   1.157       .  T
C745        C746   1.415       .  A
C745        C750   1.415       .  A
C746        C747   1.413       .  A
C746        C751   1.451       .  S
C747        C748   1.413       .  A
C747        C754   1.451       .  S
C748        C749   1.412       .  A
C749        C750   1.409       .  A
C749        C752   1.452       .  S
C750        C753   1.452       .  S
C751        N758   1.157       .  T
C752        N757   1.157       .  T
C753        N755   1.157       .  T
C754        N756   1.157       .  T
C759        C760   1.418       .  A
C759        C764   1.419       .  A
C760        C761   1.408   1_455  A
C760        C765   1.454       .  S
C761        C762   1.415       .  A
C761        C768   1.454       .  S
C762        C763   1.411       .  A
C763        C764   1.417   1_655  A
C763        C766   1.450       .  S
C764        C767   1.450       .  S
C765        N772   1.157       .  T
C766        N771   1.157       .  T
C767        N769   1.157       .  T
C768        N770   1.157       .  T
C773        C774   1.410       .  A
C773        C778   1.415       .  A
C774        C775   1.416   1_655  A
C774        C779   1.450       .  S
C775        C776   1.419       .  A
C775        C782   1.450       .  S
C776        C777   1.419   1_455  A
C777        C778   1.411       .  A
C777        C780   1.453       .  S
C778        C781   1.454       .  S
C779        N786   1.157       .  T
C780        N785   1.158       .  T
C781        N783   1.158       .  T
C782        N784   1.157       .  T
C787        C788   1.428       .  A
C787        C792   1.415       .  A
C788        C789   1.412       .  A
C788        C793   1.453   1_556  S
C789        C790   1.407       .  A
C789        C796   1.453   1_556  S
C790        C791   1.419       .  A
C791        C792   1.413       .  A
C791        C794   1.453       .  S
C792        C795   1.452       .  S
C793        N800   1.158       .  T
C794        N799   1.157       .  T
C795        N797   1.158       .  T
C796        N798   1.158       .  T
C801        C802   1.409       .  A
C801        C806   1.416       .  A
C802        C803   1.417   1_455  A
C802        C807   1.450       .  S
C803        C804   1.423       .  A
C803        C810   1.450       .  S
C804        C805   1.421   1_655  A
C805        C806   1.412       .  A
C805        C808   1.452       .  S
C806        C809   1.454       .  S
C807        N814   1.157       .  T
C808        N813   1.157       .  T
C809        N811   1.158       .  T
C810        N812   1.157       .  T
C815        C816   1.416       .  A
C815        C820   1.413       .  A
C816        C817   1.414       .  A
C816        C821   1.452       .  S
C817        C818   1.415       .  A
C817        C824   1.452       .  S
C818        C819   1.417       .  A
C819        C820   1.413       .  A
C819        C822   1.453       .  S
C820        C823   1.449       .  S
C821        N828   1.157       .  T
C822        N827   1.158       .  T
C823        N825   1.156       .  T
C824        N826   1.157       .  T
C829        C830   1.417       .  A
C829        C834   1.416       .  A
C830        C831   1.414       .  A
C830        C835   1.451       .  S
C831        C832   1.414       .  A
C831        C838   1.451       .  S
C832        C833   1.414       .  A
C833        C834   1.414       .  A
C833        C836   1.451       .  S
C834        C837   1.451       .  S
C835        N842   1.157       .  T
C836        N841   1.157       .  T
C837        N839   1.157       .  T
C838        N840   1.157       .  T
C843        C844   1.417       .  A
C843        C848   1.411       .  A
C844        C845   1.412       .  A
C844        C849   1.454       .  S
C845        C846   1.416   1_655  A
C845        C852   1.450   1_556  S
C846        C847   1.417       .  A
C847        C848   1.418   1_455  A
C847        C850   1.449       .  S
C848        C851   1.449       .  S
C849        N856   1.158       .  T
C850        N855   1.157       .  T
C851        N853   1.157       .  T
C852        N854   1.156       .  T
C857        C858   1.412       .  A
C857        C862   1.423       .  A
C858        C859   1.409       .  A
C858        C863   1.453       .  S
C859        C860   1.423       .  A
C859        C866   1.455       .  S
C860        C861   1.409       .  A
C861        C862   1.412       .  A
C861        C864   1.452       .  S
C862        C865   1.452       .  S
C863        N870   1.158       .  T
C864        N869   1.157       .  T
C865        N867   1.157       .  T
C866        N868   1.158       .  T
C871        C872   1.414       .  A
C871        C876   1.409       .  A
C872        C873   1.411       .  A
C872        C877   1.452       .  S
C873        C874   1.412       .  A
C873        C880   1.451       .  S
C874        C875   1.419       .  A
C875        C876   1.413       .  A
C875        C878   1.452       .  S
C876        C879   1.451       .  S
C877        N884   1.157       .  T
C878        N883   1.158       .  T
C879        N881   1.157       .  T
C880        N882   1.157       .  T
C885        C886   1.409       .  A
C885        C890   1.413       .  A
C886        C887   1.413       .  A
C886        C891   1.451       .  S
C887        C888   1.419       .  A
C887        C894   1.453       .  S
C888        C889   1.412       .  A
C889        C890   1.413       .  A
C889        C892   1.450       .  S
C890        C893   1.451       .  S
C891        N898   1.157       .  T
C892        N897   1.157       .  T
C893        N895   1.157       .  T
C894        N896   1.158       .  T
C899        C900   1.413       .  A
C899        C904   1.423       .  A
C900        C901   1.410       .  A
C900        C905   1.452       .  S
C901        C902   1.416       .  A
C901        C908   1.453       .  S
C902        C903   1.407       .  A
C903        C904   1.409       .  A
C903        C906   1.452       .  S
C904        C907   1.453       .  S
C905        N912   1.158       .  T
C906        N911   1.157       .  T
C907        N909   1.158       .  T
C908        N910   1.157       .  T
C913        C914   1.416       .  A
C913        C918   1.417       .  A
C914        C915   1.412       .  A
C914        C919   1.452       .  S
C915        C916   1.413   1_556  A
C915        C922   1.452       .  S
C916        C917   1.413   1_554  A
C917        C918   1.414       .  A
C917        C920   1.451   1_556  S
C918        C921   1.451       .  S
C919        N926   1.157       .  T
C920        N925   1.157       .  T
C921        N923   1.157       .  T
C922        N924   1.157   1_556  T
C927        C928   1.415       .  A
C927        C932   1.416       .  A
C928        C929   1.414       .  A
C928        C933   1.451       .  S
C929        C930   1.418       .  A
C929        C936   1.452       .  S
C930        C931   1.418       .  A
C931        C932   1.414       .  A
C931        C934   1.452       .  S
C932        C935   1.452       .  S
C933        N940   1.157       .  T
C934        N939   1.158       .  T
C935        N937   1.157       .  T
C936        N938   1.157       .  T
C941        C942   1.413       .  A
C941        C946   1.411       .  A
C942        C943   1.412       .  A
C942        C947   1.451       .  S
C943        C944   1.412       .  A
C943        C950   1.451       .  S
C944        C945   1.413       .  A
C945        C946   1.409       .  A
C945        C948   1.452       .  S
C946        C949   1.451       .  S
C947        N954   1.157       .  T
C948        N953   1.157       .  T
C949        N951   1.157       .  T
C950        N952   1.157       .  T
C955        C956   1.414       .  A
C955        C960   1.407       .  A
C956        C957   1.409       .  A
C956        C961   1.452       .  S
C957        C958   1.410       .  A
C957        C964   1.451       .  S
C958        C959   1.419       .  A
C959        C960   1.409       .  A
C959        C962   1.453       .  S
C960        C963   1.451       .  S
C961        N968   1.157       .  T
C962        N967   1.158       .  T
C963        N965   1.157       .  T
C964        N966   1.157       .  T
C969        C970   1.419       .  A
C969        C974   1.422       .  A
C970        C971   1.411       .  A
C970        C975   1.454       .  S
C971        C972   1.419       .  A
C971        C978   1.455       .  S
C972        C973   1.411       .  A
C973        C974   1.417       .  A
C973        C976   1.450       .  S
C974        C977   1.451       .  S
C975        N982   1.158       .  T
C976        N981   1.157       .  T
C977        N979   1.157       .  T
C978        N980   1.158       .  T
C983        C984   1.415       .  A
C983        C988   1.417       .  A
C984        C985   1.416       .  A
C984        C989   1.449       .  S
C985        C986   1.411       .  A
C985        C992   1.450       .  S
C986        C987   1.413       .  A
C987        C988   1.408       .  A
C987        C990   1.453       .  S
C988        C991   1.453       .  S
C989        N996   1.157       .  T
C990        N995   1.157       .  T
C991        N993   1.158   1_554  T
C992        N994   1.157       .  T
C997        C998   1.415       .  A
C997       C1002   1.428       .  A
C998        C999   1.408       .  A
C998       C1003   1.452       .  S
C999       C1000   1.420       .  A
C999       C1006   1.455       .  S
C1000      C1001   1.408       .  A
C1001      C1002   1.414       .  A
C1001      C1004   1.452       .  S
C1002      C1005   1.453       .  S
C1003      N1010   1.157       .  T
C1004      N1009   1.157       .  T
C1005      N1007   1.158       .  T
C1006      N1008   1.157       .  T
C1011      C1012   1.407       .  A
C1011      C1016   1.415       .  A
C1012      C1013   1.411       .  A
C1012      C1017   1.452       .  S
C1013      C1014   1.423       .  A
C1013      C1020   1.453       .  S
C1014      C1015   1.415       .  A
C1015      C1016   1.410       .  A
C1015      C1018   1.452       .  S
C1016      C1019   1.453       .  S
C1017      N1024   1.157       .  T
C1018      N1023   1.157       .  T
C1019      N1021   1.157       .  T
C1020      N1022   1.158       .  T
C1025      C1026   1.414       .  A
C1025      C1030   1.412       .  A
C1026      C1027   1.414       .  A
C1026      C1031   1.451       .  S
C1027      C1028   1.417       .  A
C1027      C1034   1.451       .  S
C1028      C1029   1.418       .  A
C1029      C1030   1.415       .  A
C1029      C1032   1.451       .  S
C1030      C1033   1.451       .  S
C1031      N1038   1.157       .  T
C1032      N1037   1.157       .  T
C1033      N1035   1.157       .  T
C1034      N1036   1.157       .  T
C1039      C1040   1.415       .  A
C1039      C1044   1.415       .  A
C1040      C1041   1.412       .  A
C1040      C1045   1.452       .  S
C1041      C1042   1.413       .  A
C1041      C1048   1.449       .  S
C1042      C1043   1.415       .  A
C1043      C1044   1.414       .  A
C1043      C1046   1.451       .  S
C1044      C1047   1.451       .  S
C1045      N1052   1.157       .  T
C1046      N1051   1.157       .  T
C1047      N1049   1.157       .  T
C1048      N1050   1.156       .  T
C1053      C1054   1.423       .  A
C1053      C1058   1.421       .  A
C1054      C1055   1.417       .  A
C1054      C1059   1.451       .  S
C1055      C1056   1.412       .  A
C1055      C1062   1.451       .  S
C1056      C1057   1.419       .  A
C1057      C1058   1.413       .  A
C1057      C1060   1.452       .  S
C1058      C1061   1.454       .  S
C1059      N1066   1.158       .  T
C1060      N1065   1.157       .  T
C1061      N1063   1.158       .  T
C1062      N1064   1.157       .  T
C1067      C1068   1.418       .  A
C1067      C1072   1.423       .  A
C1068      C1069   1.412       .  A
C1068      C1073   1.453       .  S
C1069      C1070   1.419       .  A
C1069      C1076   1.454       .  S
C1070      C1071   1.411       .  A
C1071      C1072   1.415       .  A
C1071      C1074   1.451       .  S
C1072      C1075   1.452       .  S
C1073      N1080   1.158       .  T
C1074      N1079   1.157       .  T
C1075      N1077   1.158       .  T
C1076      N1078   1.157       .  T
