geometry optimzed in LAMMPS
_audit_creation_date              2020-12-01 
_audit_creation_method            'lammps2cif' 
_symmetry_space_group_name_H-M    'P1' 
_symmetry_Int_Tables_number       1 
_symmetry_cell_setting            triclinic 
loop_ 
_symmetry_equiv_pos_as_xyz 
  x,y,z 
_cell_length_a                    25.94855629 
_cell_length_b                    42.29976681111547 
_cell_length_c                    26.18983680296849 
_cell_angle_alpha                 84.47526026073419 
_cell_angle_beta                  104.83356121021062 
_cell_angle_gamma                 93.2573593439328 
loop_ 
_atom_site_label 
_atom_site_type_symbol 
_atom_site_fract_x 
_atom_site_fract_y 
_atom_site_fract_z 
_atom_site_charge 
O1          O  0.93865274  0.46934717  0.36356378    -0.80900
O2          O  0.95273476  0.47532527  0.60603036    -0.65600
O3          O  0.94628751  0.01584028  0.45588018    -1.12200
C4          C  0.12966712  0.99431991  0.52456484     1.06000
O5          O  0.01223840  0.02647905  0.62443907    -0.78800
O6          O  0.07406567  0.05427467  0.56279645    -0.66400
Ni7        Ni  0.89129360  0.47591621  0.40706603     1.34900
C8          C  0.06505931  0.06596882  0.51495715     0.84700
O9          O  0.87118302  0.01516366  0.51523902    -0.79300
O10         O  0.83812946  0.48128266  0.44411502    -0.89600
C11         C  0.97784997  0.00695225  0.63715148     0.84300
O12         O  0.90127415  0.43347852  0.43900536    -0.67800
O13         O  0.12361590  0.99912863  0.56992828    -0.87100
C14         C  0.90465129  0.42350281  0.48702857     0.85100
C15         C  0.83634962  0.49112810  0.48808573     1.06700
H16         H  0.01868160  0.45031731  0.54016680     0.38500
O17         O  0.01741692  0.47320395  0.53653057    -1.09700
O18         O  0.04168992  0.04997365  0.47624351    -0.66400
Ni19       Ni  0.01976507  0.00584081  0.46736600     1.26300
O20         O  0.92008587  0.44147946  0.52483067    -0.66600
O21         O  0.09012359  0.47881347  0.47452344    -0.78900
C22         C  0.97677447  0.48731292  0.35444570     0.84500
O23         O  0.02113352  0.01601983  0.39499960    -0.66100
Ni24       Ni  0.06639258  0.01239826  0.59512790     1.27400
Ni25       Ni  0.94685414  0.48513134  0.53200127     1.26100
H26         H  0.94182078  0.03847267  0.44782992     0.39100
O27         O  0.44376479  0.49710645  0.36195128    -0.80900
O28         O  0.45292566  0.49202066  0.60912485    -0.65600
O29         O  0.45281466  0.51420726  0.46394915    -1.12200
C30         C  0.63406820  0.48754538  0.53233272     1.06000
O31         O  0.52399212  0.00682913  0.62852302    -0.78800
O32         O  0.58793577  0.02984595  0.56596230    -0.66400
Ni33       Ni  0.40016737  0.49405059  0.41059687     1.34900
C34         C  0.57153716  0.04400238  0.52009872     0.84700
O35         O  0.37815051  0.51293666  0.52489434    -0.79300
O36         O  0.34733534  0.49003003  0.44959238    -0.89600
C37         C  0.48314471  0.50929502  0.64219826     0.84300
O38         O  0.42370169  0.45255816  0.43890291    -0.67800
O39         O  0.62880314  0.49239626  0.57804863    -0.87100
C40         C  0.42061909  0.44065260  0.48461123     0.85100
C41         C  0.34071205  0.50050072  0.49100423     1.06700
H42         H  0.52425789  0.46853743  0.55225351     0.38500
O43         O  0.52178032  0.49131695  0.54545235    -1.09700
O44         O  0.53871693  0.03059374  0.48282646    -0.66400
Ni45       Ni  0.52538888  0.50176502  0.47487443     1.26300
O46         O  0.42752285  0.45777641  0.52389544    -0.66600
O47         O  0.59688471  0.48880992  0.48965567    -0.78900
C48         C  0.49089525  0.50621928  0.36138054     0.84500
O49         O  0.51603799  0.99847855  0.39953267    -0.66100
Ni50       Ni  0.57427348  0.98885889  0.59847614     1.27400
Ni51       Ni  0.45022327  0.50206645  0.53576485     1.26100
H52         H  0.44072410  0.01622538  0.45817877     0.39100
O53         O  0.21128292  0.23136423  0.36699288    -0.80900
O54         O  0.21328468  0.24308747  0.60001095    -0.65600
O55         O  0.20935449  0.26427278  0.45447349    -1.12200
C56         C  0.39202547  0.24103543  0.51295506     1.06000
O57         O  0.28649623  0.27276188  0.62181487    -0.78800
O58         O  0.34956321  0.29669657  0.56019702    -0.66400
Ni59       Ni  0.15872141  0.24549818  0.39930971     1.34900
C60         C  0.33413121  0.31177936  0.51508516     0.84700
O61         O  0.13653761  0.26399417  0.51511184    -0.79300
O62         O  0.10278628  0.25764510  0.42777769    -0.89600
C63         C  0.24897921  0.25630343  0.63492614     0.84300
O64         O  0.15314339  0.20367528  0.43214401    -0.67800
O65         O  0.38741371  0.23907110  0.56045791    -0.87100
C66         C  0.15999092  0.19269411  0.48014007     0.85100
C67         C  0.09791043  0.26180874  0.47397136     1.06700
H68         H  0.28129880  0.21847120  0.53583057     0.38500
O69         O  0.28021882  0.24136770  0.53267930    -1.09700
O70         O  0.30310995  0.29915186  0.47548894    -0.66400
Ni71       Ni  0.28160616  0.25530961  0.46200399     1.26300
O72         O  0.18317041  0.20894556  0.51859378    -0.66600
O73         O  0.35414355  0.24644393  0.47190525    -0.78900
C74         C  0.24936876  0.24832628  0.35551968     0.84500
O75         O  0.27755878  0.26651994  0.38852339    -0.66100
Ni76       Ni  0.33527507  0.25524221  0.58963152     1.27400
Ni77       Ni  0.20864522  0.25275199  0.52611909     1.26100
H78         H  0.20524928  0.28697068  0.44795235     0.39100
O79         O  0.71201945  0.21811094  0.37204878    -0.80900
O80         O  0.71533599  0.21819640  0.61291285    -0.65600
O81         O  0.71412216  0.24379883  0.46882882    -1.12200
C82         C  0.89720744  0.23239118  0.52030486     1.06000
O83         O  0.79237424  0.24279442  0.64833147    -0.78800
O84         O  0.82715553  0.28304174  0.57562058    -0.66400
Ni85       Ni  0.66185335  0.22632393  0.41192248     1.34900
C86         C  0.82299366  0.29496162  0.52834020     0.84700
O87         O  0.64201366  0.24015389  0.53097271    -0.79300
O88         O  0.60633164  0.23357388  0.44457629    -0.89600
C89         C  0.74792203  0.22988120  0.65176627     0.84300
O90         O  0.66276997  0.18290802  0.44057497    -0.67800
O91         O  0.89321789  0.23867507  0.56555816    -0.87100
C92         C  0.66917208  0.17066663  0.48802685     0.85100
C93         C  0.60289866  0.23810385  0.49088327     1.06700
H94         H  0.79031020  0.19773493  0.55268114     0.38500
O95         O  0.78626926  0.22049761  0.54751529    -1.09700
O96         O  0.80876936  0.27832334  0.48860197    -0.66400
Ni97       Ni  0.78620868  0.23454410  0.47556066     1.26300
O98         O  0.68998451  0.18635530  0.52800732    -0.66600
O99         O  0.85790539  0.22432040  0.48362674    -0.78900
C100        C  0.75001643  0.23668300  0.36433208     0.84500
O101        O  0.78270411  0.24838584  0.40310045    -0.66100
Ni102      Ni  0.83900717  0.23969927  0.60267675     1.27400
Ni103      Ni  0.71360763  0.23006582  0.54026862     1.26100
H104        H  0.71040914  0.26656737  0.46417311     0.39100
O105        O  0.94664074  0.99195902  0.87465927    -0.80900
O106        O  0.98586826  0.00543062  0.10847537    -0.65600
O107        O  0.00167153  0.01572692  0.96832794    -1.12200
C108        C  0.08178768  0.42020123  0.01403779     1.06000
O109        O  0.05567668  0.49468629  0.13703950    -0.78800
O110        O  0.12727604  0.48820894  0.07681695    -0.66400
Ni111      Ni  0.94425229  0.02921825  0.91038082     1.34900
C112        C  0.13562468  0.49372363  0.03096499     0.84700
O113        O  0.96358192  0.05308961  0.03125389    -0.79300
O114        O  0.93908842  0.06705738  0.94318042    -0.89600
C115        C  0.02513781  0.99942359  0.14803452     0.84300
O116        O  0.88294734  0.01263898  0.93393173    -0.67800
O117        O  0.09121103  0.42807097  0.06163760    -0.87100
C118        C  0.87033527  0.50545638  0.96997328     0.85100
C119        C  0.94231732  0.07213271  0.99125191     1.06700
H120        H  0.98539411  0.45610696  0.03868181     0.38500
O121        O  0.01225622  0.47234836  0.03816676    -1.09700
O122        O  0.09776417  0.49233831  0.98880823    -0.66400
Ni123      Ni  0.02369053  0.47718400  0.96937504     1.26300
O124        O  0.91649127  0.99565458  0.01863202    -0.66600
O125        O  0.05050094  0.43544460  0.97471171    -0.78900
C126        C  0.98692291  0.48926897  0.86059918     0.84500
O127        O  0.02842185  0.48334087  0.89766302    -0.66100
Ni128      Ni  0.07145699  0.46197866  0.09685126     1.27400
Ni129      Ni  0.99094899  0.01127387  0.03719936     1.26100
H130        H  0.03106133  0.03116235  0.96841283     0.39100
O131        O  0.55307771  0.48455727  0.14396050    -0.80900
O132        O  0.52519201  0.49671015  0.89817347    -0.65600
O133        O  0.54871510  0.01851657  0.04165999    -1.12200
C134        C  0.35359783  0.49764768  0.99997322     1.06000
O135        O  0.46671377  0.02915922  0.87123795    -0.78800
O136        O  0.42159498  0.06081772  0.93668857    -0.66400
Ni137      Ni  0.59936682  0.49159284  0.09666317     1.34900
C138        C  0.43140258  0.07011721  0.98317291     0.84700
O139        O  0.61404888  0.51291725  0.97204479    -0.79300
O140        O  0.65282941  0.49637343  0.05626559    -0.89600
C141        C  0.49850321  0.00948319  0.86273409     0.84300
O142        O  0.58194218  0.44994263  0.07401324    -0.67800
O143        O  0.35685382  0.49827672  0.95204154    -0.87100
C144        C  0.57500451  0.44198358  0.02719120     0.85100
C145        C  0.65541891  0.50445408  0.00870798     1.06700
H146        H  0.45890996  0.47303941  0.97299744     0.38500
O147        O  0.46540166  0.49575641  0.97254481    -1.09700
O148        O  0.45545178  0.05292071  0.02428997    -0.66400
Ni149      Ni  0.47188028  0.50679362  0.04218050     1.26300
O150        O  0.55544819  0.46055690  0.98642806    -0.66600
O151        O  0.39528337  0.50002417  0.03904181    -0.78900
C152        C  0.51856388  0.50240692  0.15189528     0.84500
O153        O  0.48560541  0.01652559  0.11364022    -0.66100
Ni154      Ni  0.41630611  0.01866939  0.91377406     1.27400
Ni155      Ni  0.53893221  0.50469990  0.97096783     1.26100
H156        H  0.55462203  0.04132642  0.04084930     0.39100
O157        O  0.29611396  0.22289777  0.13015398    -0.80900
O158        O  0.27269451  0.23543872  0.88939234    -0.65600
O159        O  0.29247570  0.25533858  0.03169460    -1.12200
C160        C  0.10138628  0.24192704  0.99514388     1.06000
O161        O  0.20223345  0.26576704  0.86175747    -0.78800
O162        O  0.16159478  0.29653529  0.92795503    -0.66400
Ni163      Ni  0.34595640  0.23629273  0.08819371     1.34900
C164        C  0.17792077  0.30791488  0.97261827     0.84700
O165        O  0.36111164  0.25339922  0.96355497    -0.79300
O166        O  0.39978846  0.24885641  0.05120461    -0.89600
C167        C  0.23750583  0.24924338  0.85231699     0.84300
O168        O  0.34520264  0.19464332  0.06488586    -0.67800
O169        O  0.10290842  0.24442041  0.94662069    -0.87100
C170        C  0.33166167  0.18435143  0.01913028     0.85100
C171        C  0.40271387  0.25309247  0.00299557     1.06700
H172        H  0.20503664  0.21299615  0.96430180     0.38500
O173        O  0.21164802  0.23574636  0.96339513    -1.09700
O174        O  0.20440848  0.29190480  0.01372605    -0.66400
Ni175      Ni  0.21902537  0.24765145  0.03345015     1.26300
O176        O  0.30306662  0.20026488  0.97898481    -0.66600
O177        O  0.14386723  0.24053045  0.03325654    -0.78900
C178        C  0.26531311  0.24200945  0.14147744     0.84500
O179        O  0.23307917  0.25818456  0.10506239    -0.66100
Ni180      Ni  0.15593003  0.25413019  0.90742871     1.27400
Ni181      Ni  0.28559825  0.24455758  0.96162299     1.26100
H182        H  0.30009507  0.27796282  0.03164834     0.39100
O183        O  0.68969293  0.25368660  0.87206242    -0.80900
O184        O  0.73600732  0.27176370  0.11279267    -0.65600
O185        O  0.74676951  0.27686445  0.96937319    -1.12200
C186        C  0.82132698  0.17514214  0.02397661     1.06000
O187        O  0.81960000  0.25805834  0.13954043    -0.78800
O188        O  0.88059213  0.24048857  0.07533648    -0.66400
Ni189      Ni  0.68812350  0.28991755  0.91171654     1.34900
C190        C  0.88559647  0.24673328  0.02825671     0.84700
O191        O  0.71397289  0.31786924  0.03288973    -0.79300
O192        O  0.68037820  0.32747260  0.94497417    -0.89600
C193        C  0.77651884  0.26443499  0.15035655     0.84300
O194        O  0.63017927  0.27034269  0.93718280    -0.67800
O195        O  0.83114092  0.18323677  0.07130402    -0.87100
C196        C  0.62440074  0.26252885  0.98352935     0.85100
C197        C  0.68823113  0.33494972  0.99255395     1.06700
H198        H  0.73458771  0.21838230  0.04846068     0.38500
O199        O  0.76380482  0.23325160  0.04531383    -1.09700
O200        O  0.84528811  0.24811356  0.98805054    -0.66400
Ni201      Ni  0.77041179  0.23413243  0.97464133     1.26300
O202        O  0.66404481  0.26082065  0.02446299    -0.66600
O203        O  0.79428917  0.19154495  0.98336572    -0.78900
C204        C  0.73012999  0.24121290  0.86391093     0.84500
O205        O  0.77147144  0.23597516  0.90153945    -0.66100
Ni206      Ni  0.82333926  0.22120218  0.10281747     1.27400
Ni207      Ni  0.73881546  0.27550833  0.04012484     1.26100
H208        H  0.77626638  0.29128504  0.96707980     0.39100
C209        C  0.50126168  0.26061778  0.03984722    -0.12300
C210        C  0.45851595  0.25648609  0.99508213     0.04700
C211        C  0.47151868  0.25277113  0.94675074    -0.07500
C212        C  0.52540426  0.25376273  0.94426919    -0.08300
C213        C  0.56804808  0.25764907  0.98941796    -0.02800
C214        C  0.55476785  0.26090779  0.03770432     0.04000
N215        N  0.59479305  0.26409278  0.08580445     0.66500
H216        H  0.49348259  0.26336992  0.07787071     0.15400
H217        H  0.53378981  0.25136460  0.90639826     0.15100
N218        N  0.43095761  0.24749308  0.89978685     0.74200
O219        O  0.61105554  0.29153582  0.09901862    -0.39300
O220        O  0.60107063  0.24104796  0.12089045    -0.39200
O221        O  0.42095415  0.26954099  0.86301683    -0.39900
O222        O  0.41572568  0.21937185  0.88981881    -0.40000
C223        C  0.00340719  0.25250832  0.96304856    -0.12300
C224        C  0.04677407  0.24287693  0.00562139     0.04700
C225        C  0.03684266  0.23713948  0.05640781    -0.07500
C226        C  0.98508842  0.24033139  0.06311252    -0.08300
C227        C  0.94149828  0.24936845  0.02023628    -0.02800
C228        C  0.95193051  0.25593799  0.96971922     0.04000
N229        N  0.91104562  0.26645486  0.92436299     0.66500
H230        H  0.00933025  0.25804559  0.92365298     0.15400
H231        H  0.97887430  0.23461451  0.10235260     0.15100
N232        N  0.07823742  0.22708607  0.10159022     0.74200
O233        O  0.90477496  0.29587353  0.91282000    -0.39300
O234        O  0.89140340  0.24748282  0.88957800    -0.39200
O235        O  0.10046150  0.24689262  0.13413997    -0.39900
O236        O  0.08422984  0.19777406  0.11471317    -0.40000
C237        C  0.35399476  0.14742637  0.95886155    -0.12300
C238        C  0.35440618  0.15384650  0.01079645     0.04700
C239        C  0.38351802  0.13343826  0.05320690    -0.07500
C240        C  0.41010325  0.10758232  0.04308193    -0.08300
C241        C  0.40941012  0.10098015  0.99117128    -0.02800
C242        C  0.38098777  0.12168405  0.94873909     0.04000
N243        N  0.37951750  0.11743825  0.89491491     0.66500
H244        H  0.33368772  0.16305219  0.92539827     0.15400
H245        H  0.43066636  0.09214007  0.07667214     0.15100
N246        N  0.38665034  0.13833395  0.10715201     0.74200
O247        O  0.33965192  0.10329996  0.86687421    -0.39300
O248        O  0.41076883  0.13403988  0.87256775    -0.39200
O249        O  0.35653149  0.12196461  0.13116336    -0.39900
O250        O  0.42693127  0.15294718  0.13359919    -0.40000
C251        C  0.60903704  0.41028911  0.96895773    -0.12300
C252        C  0.59801164  0.41211354  0.01847621     0.04700
C253        C  0.61903804  0.38884049  0.05995886    -0.07500
C254        C  0.65041780  0.36494439  0.05127277    -0.08300
C255        C  0.66164747  0.36338511  0.00174367    -0.02800
C256        C  0.64068922  0.38671187  0.96043147     0.04000
N257        N  0.65285060  0.38783665  0.91004726     0.66500
H258        H  0.59525791  0.42830494  0.93676669     0.15400
H259        H  0.66525323  0.34713403  0.08351684     0.15100
N260        N  0.60897333  0.38890210  0.11109577     0.74200
O261        O  0.61862865  0.37741584  0.87131503    -0.39300
O262        O  0.69049229  0.40604205  0.90139317    -0.39200
O263        O  0.57118726  0.37166493  0.12181425    -0.39900
O264        O  0.64434607  0.39994056  0.14834339    -0.40000
C265        C  0.80079832  0.48337419  0.01755958    -0.12300
C266        C  0.81317442  0.50258464  0.97516785     0.04700
C267        C  0.77142872  0.52125596  0.94186954    -0.07500
C268        C  0.72072917  0.52120829  0.95274830    -0.08300
C269        C  0.70926951  0.50297643  0.99646279    -0.02800
C270        C  0.74998043  0.48305283  0.02797108     0.04000
N271        N  0.74008417  0.46123546  0.06981579     0.66500
H272        H  0.83100124  0.46842136  0.04337276     0.15400
H273        H  0.69048182  0.53628558  0.92730823     0.15100
N274        N  0.77991893  0.54151573  0.89768121     0.74200
O275        O  0.72514151  0.43303615  0.06023301    -0.39300
O276        O  0.77920066  0.03124409  0.12782824    -0.39200
O277        O  0.76129523  0.53300568  0.85147170    -0.39900
O278        O  0.77581130  0.02700563  0.86145484    -0.40000
C279        C  0.20039779  0.49657934  0.97446273    -0.12300
C280        C  0.19216089  0.49840100  0.02503261     0.04700
C281        C  0.23827079  0.49936737  0.06821284    -0.07500
C282        C  0.29004053  0.49838502  0.05981293    -0.08300
C283        C  0.29791678  0.49591462  0.00900138    -0.02800
C284        C  0.25142165  0.49493957  0.96609497     0.04000
N285        N  0.26012600  0.99053088  0.91223128     0.66500
H286        H  0.17126323  0.99287331  0.93919713     0.15400
H287        H  0.32430136  0.49975086  0.09347581     0.15100
N288        N  0.23365751  0.50142448  0.12096858     0.74200
O289        O  0.25084134  0.46430228  0.89696066    -0.39300
O290        O  0.25000498  0.01322477  0.87659871    -0.39200
O291        O  0.23985788  0.47693401  0.15319080    -0.39900
O292        O  0.24153044  0.02129822  0.14245369    -0.40000
C293        C  0.89591280  0.09842112  0.04666346    -0.12300
C294        C  0.91498558  0.09993653  0.00076035     0.04700
C295        C  0.90064334  0.12571099  0.96202159    -0.07500
C296        C  0.86800116  0.14894064  0.96976642    -0.08300
C297        C  0.84830690  0.14717923  0.01506780    -0.02800
C298        C  0.86287762  0.12165803  0.05405629     0.04000
N299        N  0.84374454  0.11860555  0.10088340     0.66500
H300        H  0.90509288  0.07848791  0.07638226     0.15400
H301        H  0.86009615  0.16938477  0.94118326     0.15100
N302        N  0.92010798  0.12936238  0.91536087     0.74200
O303        O  0.80003630  0.10381858  0.10043973    -0.39300
O304        O  0.87507177  0.12456601  0.14462702    -0.39200
O305        O  0.89004109  0.12165968  0.87200557    -0.39900
O306        O  0.96094647  0.14695492  0.91490099    -0.40000
C307        C  0.17764283  0.35230475  0.02889344    -0.12300
C308        C  0.16062224  0.34007867  0.97901305     0.04700
C309        C  0.12037129  0.35620782  0.93976418    -0.07500
C310        C  0.09550681  0.38187034  0.95231980    -0.08300
C311        C  0.10994783  0.39270206  0.00327448    -0.02800
C312        C  0.15321593  0.37826933  0.04125102     0.04000
N313        N  0.17338647  0.38957408  0.09255633     0.66500
H314        H  0.20909285  0.34098436  0.05951435     0.15400
H315        H  0.06394221  0.39308545  0.92168094     0.15100
N316        N  0.10268160  0.34642686  0.88720782     0.74200
O317        O  0.15750374  0.37627943  0.13127616    -0.39300
O318        O  0.21487866  0.40736548  0.10119709    -0.39200
O319        O  0.06083506  0.32914380  0.87505685    -0.39900
O320        O  0.12094580  0.36090199  0.85084374    -0.40000
C321        C  0.76835847  0.21084183  0.74636477    -0.12300
C322        C  0.73558469  0.22857873  0.70382641     0.04700
C323        C  0.69660962  0.24746539  0.71338671    -0.07500
C324        C  0.69342634  0.24972508  0.76565841    -0.08300
C325        C  0.72863035  0.23345727  0.80903766    -0.02800
C326        C  0.76460898  0.21253397  0.79846006     0.04000
N327        N  0.79646604  0.19203969  0.83956671     0.66500
H328        H  0.79752111  0.19565676  0.73901992     0.15400
H329        H  0.66523602  0.26579879  0.77238688     0.15100
N330        N  0.66307664  0.26653679  0.67119686     0.74200
O331        O  0.77376829  0.16934211  0.86123148    -0.39300
O332        O  0.84588183  0.19116556  0.84353297    -0.39200
O333        O  0.61329611  0.26113430  0.65976633    -0.39900
O334        O  0.68135879  0.29258717  0.65418317    -0.40000
C335        C  0.80731997  0.25434700  0.30210032    -0.12300
C336        C  0.75696873  0.24418605  0.30966284     0.04700
C337        C  0.71347644  0.24268933  0.26455003    -0.07500
C338        C  0.72111312  0.25077568  0.21394905    -0.08300
C339        C  0.77131628  0.26008106  0.20598600    -0.02800
C340        C  0.81490344  0.26202228  0.25095045     0.04000
N341        N  0.86667140  0.27264623  0.24569682     0.66500
H342        H  0.84117584  0.25621100  0.33605394     0.15400
H343        H  0.68746201  0.24886322  0.18030042     0.15100
N344        N  0.66079459  0.23369863  0.26908861     0.74200
O345        O  0.87916798  0.30190424  0.24615335    -0.39300
O346        O  0.90292107  0.25279405  0.25317411    -0.39200
O347        O  0.62782111  0.25502131  0.26615993    -0.39900
O348        O  0.64396536  0.20537063  0.26313764    -0.40000
C349        C  0.19728643  0.24742610  0.70300757    -0.12300
C350        C  0.24666953  0.25336529  0.69085806     0.04700
C351        C  0.29324972  0.25637425  0.73263614    -0.07500
C352        C  0.28944967  0.25356407  0.78506964    -0.08300
C353        C  0.24001822  0.24875736  0.79699474    -0.02800
C354        C  0.19350875  0.24553591  0.75550967     0.04000
N355        N  0.14226922  0.23978364  0.76604230     0.66500
H356        H  0.16123878  0.24488062  0.67158874     0.15400
H357        H  0.32515364  0.25616992  0.81662220     0.15100
N358        N  0.34480668  0.26215202  0.72276715     0.74200
O359        O  0.11118183  0.26252984  0.75960555    -0.39300
O360        O  0.12380675  0.21161727  0.76914468    -0.39200
O361        O  0.36522571  0.28995719  0.72408474    -0.39900
O362        O  0.37397051  0.23901370  0.72441238    -0.40000
C363        C  0.26961349  0.27401990  0.27310979    -0.12300
C364        C  0.26006244  0.24610817  0.30323392     0.04700
C365        C  0.25505558  0.21672589  0.28046755    -0.07500
C366        C  0.25822933  0.21586446  0.22811222    -0.08300
C367        C  0.26494846  0.24390346  0.19722902    -0.02800
C368        C  0.27136703  0.27317599  0.22017943     0.04000
N369        N  0.28029695  0.30216316  0.19043586     0.66500
H370        H  0.27346872  0.29671847  0.28996553     0.15400
H371        H  0.25395639  0.19321180  0.21103945     0.15100
N372        N  0.24699044  0.18748305  0.31003685     0.74200
O373        O  0.24180124  0.32004998  0.16994324    -0.39300
O374        O  0.32740255  0.31281900  0.19410403    -0.39200
O375        O  0.20098816  0.17442690  0.30176872    -0.39900
O376        O  0.28683353  0.17145529  0.33426194    -0.40000
C377        C  0.48069700  0.21842036  0.53949224    -0.12300
C378        C  0.44502379  0.23920589  0.50523450     0.04700
C379        C  0.46226928  0.26058338  0.46762106    -0.07500
C380        C  0.51471712  0.26038234  0.46439878    -0.08300
C381        C  0.55011276  0.23956850  0.49852444    -0.02800
C382        C  0.53323819  0.21836221  0.53628295     0.04000
N383        N  0.56775117  0.19513187  0.56875797     0.66500
H384        H  0.46763954  0.20207119  0.56853630     0.15400
H385        H  0.52800031  0.27668189  0.43541850     0.15100
N386        N  0.42828373  0.28407546  0.43505871     0.74200
O387        O  0.59173462  0.20057624  0.61557246    -0.39300
O388        O  0.56332522  0.16695849  0.55579480    -0.39200
O389        O  0.43523151  0.31260777  0.44625328    -0.39900
O390        O  0.40172187  0.27796194  0.38934515    -0.40000
C391        C  0.01157899  0.23373825  0.45612985    -0.12300
C392        C  0.04409809  0.25830115  0.48134729     0.04700
C393        C  0.02825306  0.27379822  0.51956299    -0.07500
C394        C  0.98080500  0.26410523  0.53264796    -0.08300
C395        C  0.94894723  0.23893912  0.50845287    -0.02800
C396        C  0.96440469  0.22384370  0.46947293     0.04000
N397        N  0.93449799  0.19737964  0.44526189     0.66500
H398        H  0.02429068  0.22078959  0.42795195     0.15400
H399        H  0.96833633  0.27687522  0.56116997     0.15100
N400        N  0.05891853  0.29987779  0.54423447     0.74200
O401        O  0.90521071  0.20148798  0.39874062    -0.39300
O402        O  0.94752219  0.16958752  0.46441927    -0.39200
O403        O  0.04566810  0.32785650  0.52654801    -0.39900
O404        O  0.08952827  0.29513776  0.59000250    -0.40000
C405        C  0.50151435  0.48356886  0.73293727    -0.12300
C406        C  0.47833554  0.50848204  0.69682680     0.04700
C407        C  0.44162671  0.99632349  0.71720346    -0.07500
C408        C  0.44600264  0.00257850  0.76995212    -0.08300
C409        C  0.48655490  0.51025744  0.80601103    -0.02800
C410        C  0.50583561  0.48417981  0.78719751     0.04000
N411        N  0.52944377  0.45798692  0.82234117     0.66500
H412        H  0.51776352  0.46392928  0.71908534     0.15400
H413        H  0.41021566  0.00731429  0.78163809     0.15100
N414        N  0.39045109  0.99704375  0.68033054     0.74200
O415        O  0.50046400  0.43423845  0.83150424    -0.39300
O416        O  0.57946927  0.45570711  0.83476721    -0.39200
O417        O  0.35947706  0.97285625  0.67879694    -0.39900
O418        O  0.37195566  0.02342662  0.65900365    -0.40000
C419        C  0.47314898  0.52218095  0.21451212    -0.12300
C420        C  0.51557597  0.50559101  0.20689223     0.04700
C421        C  0.55388314  0.49273324  0.25202905    -0.07500
C422        C  0.54736787  0.49531817  0.30280444    -0.08300
C423        C  0.50310217  0.51012579  0.30956643    -0.02800
C424        C  0.46665027  0.52449499  0.26514641     0.04000
N425        N  0.42266382  0.54150263  0.27086319     0.66500
H426        H  0.44400867  0.53301815  0.18099271     0.15400
H427        H  0.57454058  0.98044716  0.33539279     0.15100
N428        N  0.60492029  0.98419272  0.24654160     0.74200
O429        O  0.42884723  0.57074040  0.27766149    -0.39300
O430        O  0.37610362  0.52935021  0.25783349    -0.39200
O431        O  0.64384616  0.49035120  0.25504982    -0.39900
O432        O  0.61799899  0.95595647  0.24610821    -0.40000
C433        C  0.35233662  0.35925623  0.45681464    -0.12300
C434        C  0.35579619  0.34502568  0.50818378     0.04700
C435        C  0.38382924  0.36200629  0.55172181    -0.07500
C436        C  0.40681665  0.39222142  0.54298388    -0.08300
C437        C  0.40289859  0.40657844  0.49156150    -0.02800
C438        C  0.37560895  0.38938754  0.44811225     0.04000
N439        N  0.36916486  0.40246305  0.39459910     0.66500
H440        H  0.33191054  0.34675963  0.42271750     0.15400
H441        H  0.42688647  0.40483847  0.57705892     0.15100
N442        N  0.38795539  0.34960618  0.60531613     0.74200
O443        O  0.40032064  0.39459905  0.36842834    -0.39300
O444        O  0.32609992  0.41546475  0.37045510    -0.39200
O445        O  0.43078538  0.33733954  0.63210109    -0.39900
O446        O  0.35423880  0.35718485  0.62880996    -0.40000
C447        C  0.62775393  0.09151378  0.55381084    -0.12300
C448        C  0.59427098  0.07694612  0.51052362     0.04700
C449        C  0.58782646  0.09312972  0.45947878    -0.07500
C450        C  0.61401770  0.12279656  0.45314917    -0.08300
C451        C  0.64746156  0.13734498  0.49656437    -0.02800
C452        C  0.65419217  0.12098213  0.54747728     0.04000
N453        N  0.68818352  0.13357498  0.59353831     0.66500
H454        H  0.63429867  0.07979544  0.59347129     0.15400
H455        H  0.60735329  0.13467303  0.41359082     0.15100
N456        N  0.55570812  0.07974815  0.41325272     0.74200
O457        O  0.66793791  0.14749254  0.62385569    -0.39300
O458        O  0.73536533  0.12429527  0.61017477    -0.39200
O459        O  0.50957814  0.08990362  0.39256735    -0.39900
O460        O  0.57741324  0.06363667  0.38687478    -0.40000
C461        C  0.94023165  0.48056283  0.76724023    -0.12300
C462        C  0.98777833  0.48770890  0.80473060     0.04700
C463        C  0.03364187  0.99649989  0.78579346    -0.07500
C464        C  0.02897117  0.00247201  0.73134134    -0.08300
C465        C  0.97959209  0.99934003  0.69408039    -0.02800
C466        C  0.93885894  0.48028390  0.71343295     0.04000
N467        N  0.88934919  0.47273413  0.67713190     0.66500
H468        H  0.90382599  0.47498386  0.77978883     0.15400
H469        H  0.06453500  0.00971418  0.71816547     0.15100
N470        N  0.08489568  0.00061494  0.82153563     0.74200
O471        O  0.87906759  0.44442598  0.66541560    -0.39300
O472        O  0.85164274  0.49167747  0.66841954    -0.39200
O473        O  0.11831945  0.97904225  0.82890192    -0.39900
O474        O  0.10054835  0.02792207  0.83586422    -0.40000
C475        C  0.97025062  0.01444488  0.20634183    -0.12300
C476        C  0.00099469  0.49892333  0.19661106     0.04700
C477        C  0.04198923  0.50670060  0.24085581    -0.07500
C478        C  0.03221218  0.50404789  0.29111714    -0.08300
C479        C  0.98316322  0.49228189  0.29938846    -0.02800
C480        C  0.96011204  0.01642705  0.25568269     0.04000
N481        N  0.90832080  0.02537867  0.25743900     0.66500
H482        H  0.93811427  0.01956288  0.17130568     0.15400
H483        H  0.06371335  0.51084217  0.32395216     0.15100
N484        N  0.09371820  0.51755244  0.23568738     0.74200
O485        O  0.89873057  0.05445200  0.25529344    -0.39300
O486        O  0.87398341  0.44659694  0.25386358    -0.39200
O487        O  0.15091313  0.00894092  0.25379311    -0.39900
O488        O  0.12974890  0.49766378  0.24199832    -0.40000
C489        C  0.74899162  0.46552645  0.48339252    -0.12300
C490        C  0.78463654  0.49095023  0.49957581     0.04700
C491        C  0.77208952  0.51339929  0.53036485    -0.07500
C492        C  0.72391060  0.50997173  0.54454121    -0.08300
C493        C  0.68773621  0.48499079  0.52714092    -0.02800
C494        C  0.70036543  0.46255957  0.49654487     0.04000
N495        N  0.66470862  0.43651144  0.47928148     0.66500
H496        H  0.75917430  0.44762346  0.46095629     0.15400
H497        H  0.71310091  0.52814927  0.56608207     0.15100
N498        N  0.80532884  0.54114760  0.54321040     0.74200
O499        O  0.64772874  0.93254419  0.41956138    -0.39300
O500        O  0.67055098  0.41013596  0.50668716    -0.39200
O501        O  0.76993973  0.07030756  0.50740130    -0.39900
O502        O  0.83286918  0.54333881  0.59006971    -0.40000
C503        C  0.27706464  0.00476394  0.54013198    -0.12300
C504        C  0.28763492  0.49542406  0.49970487     0.04700
C505        C  0.27949542  0.48180405  0.54821712    -0.07500
C506        C  0.22783677  0.47267745  0.55177229    -0.08300
C507        C  0.18351063  0.98922039  0.52082827    -0.02800
C508        C  0.22668536  0.00793593  0.54782218     0.04000
N509        N  0.21918027  0.03191960  0.57996813     0.66500
H510        H  0.30939107  0.02030757  0.55929245     0.15400
H511        H  0.22203236  0.46296411  0.58979005     0.15100
N512        N  0.32334450  0.47606227  0.59341961     0.74200
O513        O  0.23092366  0.02669588  0.62977878    -0.39300
O514        O  0.19883403  0.05784786  0.55851711    -0.39200
O515        O  0.33826906  0.49687973  0.62602395    -0.39900
O516        O  0.34932179  0.45109527  0.59895108    -0.40000
C517        C  0.84336373  0.37706689  0.46061703    -0.12300
C518        C  0.88551613  0.39029307  0.49854942     0.04700
C519        C  0.90434668  0.37272482  0.54789594    -0.07500
C520        C  0.88150443  0.34249570  0.55792342    -0.08300
C521        C  0.84002341  0.32896944  0.51934954    -0.02800
C522        C  0.82058079  0.34696464  0.47053585     0.04000
N523        N  0.77630397  0.33557556  0.43118253     0.66500
H524        H  0.82684366  0.39055427  0.42319819     0.15400
H525        H  0.89802370  0.32895805  0.59528103     0.15100
N526        N  0.94831309  0.38457149  0.58718967     0.74200
O527        O  0.72971193  0.34256196  0.43133678    -0.39300
O528        O  0.78426242  0.32490905  0.39058730    -0.39200
O529        O  0.94052185  0.39494372  0.62808038    -0.39900
O530        O  0.99452407  0.38643407  0.57956457    -0.40000
C531        C  0.10622541  0.11784026  0.54758657    -0.12300
C532        C  0.08570715  0.09923174  0.50457916     0.04700
C533        C  0.09030483  0.11186253  0.45380750    -0.07500
C534        C  0.11594003  0.14158214  0.44754529    -0.08300
C535        C  0.13714066  0.16001264  0.49061733    -0.02800
C536        C  0.13113812  0.14783424  0.54114870     0.04000
N537        N  0.14857377  0.16581275  0.58631690     0.66500
H538        H  0.10305017  0.10909890  0.58696682     0.15400
H539        H  0.11886098  0.15030417  0.40807579     0.15100
N540        N  0.06999216  0.09480920  0.40792083     0.74200
O541        O  0.11630729  0.18355507  0.59761625    -0.39300
O542        O  0.19127940  0.15886861  0.62043206    -0.39200
O543        O  0.02514103  0.10160429  0.37743789    -0.39900
O544        O  0.10117950  0.07863112  0.39187691    -0.40000
O545        O  0.94293695  0.99339442  0.35705296    -0.80900
O546        O  0.94441018  0.99341851  0.60104311    -0.65600
O547        O  0.94448733  0.49612299  0.45924604    -1.12200
C548        C  0.12945601  0.47480328  0.51513885     1.06000
O549        O  0.02465254  0.50596056  0.62560336    -0.78800
O550        O  0.08547927  0.52974360  0.56075673    -0.66400
Ni551      Ni  0.89603067  0.99390773  0.40269094     1.34900
C552        C  0.06906042  0.54424690  0.51517508     0.84700
O553        O  0.87700547  0.49817828  0.52422617    -0.79300
O554        O  0.84097221  0.99264608  0.43920494    -0.89600
C555        C  0.98738960  0.48972848  0.63986699     0.84300
O556        O  0.91628177  0.95237077  0.43436203    -0.67800
O557        O  0.12495792  0.47235991  0.56270809    -0.87100
C558        C  0.91420247  0.94193501  0.48102579     0.85100
C559        C  0.83399268  0.00287788  0.48080921     1.06700
H560        H  0.01900632  0.97159707  0.54455326     0.38500
O561        O  0.01582322  0.99433696  0.53818139    -1.09700
O562        O  0.03702320  0.53118767  0.47702904    -0.66400
Ni563      Ni  0.01671349  0.48717100  0.46523951     1.26300
O564        O  0.92144962  0.96010811  0.51859924    -0.66600
O565        O  0.09252867  0.99513713  0.48192403    -0.78900
C566        C  0.98759334  0.00641868  0.35469220     0.84500
O567        O  0.01075138  0.49972147  0.39191692    -0.66100
Ni568      Ni  0.07286595  0.48840370  0.59223760     1.27400
Ni569      Ni  0.94335910  0.00441381  0.52789797     1.26100
H570        H  0.93972942  0.51875540  0.45202493     0.39100
O571        O  0.43984845  0.97232479  0.36514628    -0.80900
O572        O  0.45569544  0.97290211  0.61320743    -0.65600
O573        O  0.44676640  0.99370459  0.46532329    -1.12200
C574        C  0.63216509  0.97448814  0.52362186     1.06000
O575        O  0.51996006  0.52665045  0.62915603    -0.78800
O576        O  0.58722133  0.54940227  0.56858055    -0.66400
Ni577      Ni  0.39490213  0.97224890  0.41354511     1.34900
C578        C  0.57974690  0.56038868  0.52051777     0.84700
O579        O  0.37791406  0.99238130  0.53033180    -0.79300
O580        O  0.34198432  0.97159359  0.45338380    -0.89600
C581        C  0.48849451  0.99000915  0.64479826     0.84300
O582        O  0.41590976  0.93052814  0.44374815    -0.67800
O583        O  0.62729019  0.97234966  0.57103027    -0.87100
C584        C  0.41661294  0.91931607  0.49076744     0.85100
C585        C  0.33814950  0.98236955  0.49595548     1.06700
H586        H  0.52383242  0.94946320  0.54722199     0.38500
O587        O  0.52064940  0.97225581  0.54307366    -1.09700
O588        O  0.55198096  0.54527634  0.48248031    -0.66400
Ni589      Ni  0.52017314  0.98610319  0.47205141     1.26300
O590        O  0.42611153  0.93715575  0.52934747    -0.66600
O591        O  0.59402728  0.97860584  0.48203173    -0.78900
C592        C  0.48199553  0.98797831  0.36043957     0.84500
O593        O  0.52722214  0.51095336  0.40280003    -0.66100
Ni594      Ni  0.57303267  0.50888700  0.60191582     1.27400
Ni595      Ni  0.44903844  0.98184758  0.53820386     1.26100
H596        H  0.45037985  0.53700707  0.45700005     0.39100
O597        O  0.19876469  0.71488903  0.36920660    -0.80900
O598        O  0.23233255  0.71153657  0.61077165    -0.65600
O599        O  0.21566006  0.74268680  0.46678348    -1.12200
C600        C  0.39428167  0.72158556  0.49517854     1.06000
O601        O  0.31227635  0.73465068  0.64010788    -0.78800
O602        O  0.34152203  0.77529996  0.56527787    -0.66400
Ni603      Ni  0.15631497  0.72932308  0.41269875     1.34900
C604        C  0.33384093  0.78882085  0.51864563     0.84700
O605        O  0.15201595  0.73696760  0.53804239    -0.79300
O606        O  0.10927124  0.74265163  0.45116949    -0.89600
C607        C  0.26881338  0.72229795  0.64766390     0.84300
O608        O  0.14677360  0.68649552  0.43986607    -0.67800
O609        O  0.39741470  0.72825874  0.54226955    -0.87100
C610        C  0.16352332  0.67114281  0.48464067     0.85100
C611        C  0.11077920  0.74240672  0.50028147     1.06700
H612        H  0.29392288  0.69261836  0.53814133     0.38500
O613        O  0.29162788  0.71544305  0.53567268    -1.09700
O614        O  0.31385624  0.77384782  0.47745932    -0.66400
Ni615      Ni  0.28371675  0.73116967  0.46313201     1.26300
O616        O  0.19584259  0.68343452  0.52343222    -0.66600
O617        O  0.35099361  0.71813433  0.46049892    -0.78900
C618        C  0.23717370  0.73070929  0.35623160     0.84500
O619        O  0.27151230  0.74540321  0.38992268    -0.66100
Ni620      Ni  0.35102904  0.73117027  0.58754681     1.27400
Ni621      Ni  0.22212117  0.72617564  0.53816840     1.26100
H622        H  0.21496425  0.76555628  0.46560171     0.39100
O623        O  0.73146963  0.73148926  0.36510445    -0.80900
O624        O  0.71159664  0.73552221  0.59877284    -0.65600
O625        O  0.71460815  0.75678605  0.45433179    -1.12200
C626        C  0.90155479  0.75016607  0.52738366     1.06000
O627        O  0.77611260  0.77118975  0.62494628    -0.78800
O628        O  0.84153388  0.80085637  0.56592336    -0.66400
Ni629      Ni  0.67452588  0.73200136  0.39964926     1.34900
C630        C  0.82610356  0.81458394  0.51949002     0.84700
O631        O  0.63661609  0.74920765  0.50901825    -0.79300
O632        O  0.61334784  0.73098008  0.42772160    -0.89600
C633        C  0.73921238  0.75224772  0.63440530     0.84300
O634        O  0.69280066  0.69098297  0.43537484    -0.67800
O635        O  0.89261972  0.74683103  0.57333879    -0.87100
C636        C  0.68954927  0.68114655  0.48192611     0.85100
C637        C  0.60267336  0.73847698  0.46971685     1.06700
H638        H  0.79317858  0.71790524  0.54192123     0.38500
O639        O  0.78610821  0.74032337  0.53772028    -1.09700
O640        O  0.79728753  0.80019314  0.48099899    -0.66400
Ni641      Ni  0.79006869  0.75571389  0.46807997     1.26300
O642        O  0.69725965  0.69963201  0.51904155    -0.66600
O643        O  0.86560527  0.75426144  0.48415232    -0.78900
C644        C  0.76289507  0.75462184  0.35776471     0.84500
O645        O  0.78937114  0.76973323  0.39613830    -0.66100
Ni646      Ni  0.83291188  0.75851299  0.59681830     1.27400
Ni647      Ni  0.71127830  0.74486904  0.52548714     1.26100
H648        H  0.70360175  0.77848516  0.44518396     0.39100
O649        O  0.94439320  0.49699235  0.87131651    -0.80900
O650        O  0.97047311  0.50509304  0.10301740    -0.65600
O651        O  0.99738238  0.51879241  0.96754137    -1.12200
C652        C  0.08371684  0.91601759  0.01176827     1.06000
O653        O  0.06836243  0.98915792  0.14221010    -0.78800
O654        O  0.13381014  0.98266606  0.07632931    -0.66400
Ni655      Ni  0.94385896  0.53428029  0.90778664     1.34900
C656        C  0.14080000  0.98974537  0.03025776     0.84700
O657        O  0.94995200  0.55383795  0.02703966    -0.79300
O658        O  0.94145124  0.57223212  0.94145341    -0.89600
C659        C  0.00957780  0.49967662  0.14289808     0.84300
O660        O  0.87951108  0.51981707  0.92810889    -0.67800
O661        O  0.09399702  0.92324132  0.05970091    -0.87100
C662        C  0.87661507  0.00235461  0.97919658     0.85100
C663        C  0.93607742  0.57488521  0.98800183     1.06700
H664        H  0.99022589  0.95417286  0.04088331     0.38500
O665        O  0.01846266  0.96966616  0.04002121    -1.09700
O666        O  0.10221250  0.98928890  0.98841408    -0.66400
Ni667      Ni  0.02787939  0.97416192  0.96979284     1.26300
O668        O  0.90855081  0.49520380  0.00861529    -0.66600
O669        O  0.05354248  0.93232570  0.97327548    -0.78900
C670        C  0.98881406  0.98627609  0.86141814     0.84500
O671        O  0.03129579  0.98049443  0.89729226    -0.66100
Ni672      Ni  0.07819288  0.95712101  0.09741509     1.27400
Ni673      Ni  0.98100083  0.51293187  0.03391938     1.26100
H674        H  0.02745469  0.53398688  0.97089481     0.39100
O675        O  0.55464420  0.98525818  0.14098823    -0.80900
O676        O  0.53254876  0.99581373  0.90107514    -0.65600
O677        O  0.54662745  0.51392098  0.04230014    -1.12200
C678        C  0.35787755  0.00116041  0.99817820     1.06000
O679        O  0.46041196  0.53056134  0.87699301    -0.78800
O680        O  0.40633077  0.55452057  0.94163449    -0.66400
Ni681      Ni  0.60367427  0.00037481  0.09908039     1.34900
C682        C  0.42501208  0.56615881  0.98584125     0.84700
O683        O  0.62055702  0.01165872  0.97668639    -0.79300
O684        O  0.65872896  0.01376401  0.06340486    -0.89600
C685        C  0.49086262  0.51239784  0.86310163     0.84300
O686        O  0.60493411  0.95876956  0.07614363    -0.67800
O687        O  0.36113706  0.00830867  0.95054654    -0.87100
C688        C  0.58524778  0.94734562  0.03189320     0.85100
C689        C  0.66223841  0.01266644  0.01585818     1.06700
H690        H  0.46110286  0.97696660  0.96978177     0.38500
O691        O  0.46923787  0.99949441  0.97073167    -1.09700
O692        O  0.45841247  0.55153800  0.02395636    -0.66400
Ni693      Ni  0.47454204  0.00882989  0.04107098     1.26300
O694        O  0.55429205  0.96248064  0.99288169    -0.66600
O695        O  0.39935394  0.99865093  0.03753748    -0.78900
C696        C  0.51817897  0.00081484  0.15066507     0.84500
O697        O  0.48477800  0.51640118  0.11368999    -0.66100
Ni698      Ni  0.41046398  0.51393584  0.91647439     1.27400
Ni699      Ni  0.54383799  0.00663422  0.97227177     1.26100
H700        H  0.55561594  0.53634982  0.04436032     0.39100
O701        O  0.28646607  0.71792843  0.12944516    -0.80900
O702        O  0.26704019  0.72417923  0.89336975    -0.65600
O703        O  0.28173389  0.74996809  0.03067101    -1.12200
C704        C  0.09205656  0.73784291  0.99020450     1.06000
O705        O  0.19781639  0.75460439  0.85728062    -0.78800
O706        O  0.16390328  0.79172040  0.92248041    -0.66400
Ni707      Ni  0.33667274  0.73379992  0.08901539     1.34900
C708        C  0.17247872  0.80182203  0.96821493     0.84700
O709        O  0.35366062  0.74410679  0.96666421    -0.79300
O710        O  0.39090487  0.74883009  0.05317942    -0.89600
C711        C  0.23436307  0.73688857  0.85297140     0.84300
O712        O  0.34381564  0.69221167  0.06835810    -0.67800
O713        O  0.09571142  0.74444166  0.94261617    -0.87100
C714        C  0.32588629  0.67933010  0.02514125     0.85100
C715        C  0.39474325  0.74830886  0.00546747     1.06700
H716        H  0.19471513  0.70632898  0.96146353     0.38500
O717        O  0.20266540  0.72894713  0.96139284    -1.09700
O718        O  0.19055438  0.78434032  0.01081156    -0.66400
Ni719      Ni  0.20809424  0.74053827  0.03099633     1.26300
O720        O  0.29177651  0.69263936  0.98617432    -0.66600
O721        O  0.13300911  0.73157708  0.02868376    -0.78900
C722        C  0.25156765  0.73474344  0.13956837     0.84500
O723        O  0.21943304  0.75057793  0.10252120    -0.66100
Ni724      Ni  0.15017626  0.74883024  0.90376545     1.27400
Ni725      Ni  0.27732399  0.73660729  0.96286813     1.26100
H726        H  0.28735281  0.77277659  0.02820721     0.39100
O727        O  0.68035769  0.75703850  0.86153908    -0.80900
O728        O  0.73271492  0.77252887  0.10452701    -0.65600
O729        O  0.73512580  0.77929448  0.95912854    -1.12200
C730        C  0.80471522  0.67538731  0.00616064     1.06000
O731        O  0.81389893  0.75431243  0.12762834    -0.78800
O732        O  0.86771595  0.73105495  0.06232782    -0.66400
Ni733      Ni  0.67305729  0.79058846  0.90475766     1.34900
C734        C  0.87496132  0.74427814  0.01887519     0.84700
O735        O  0.71004272  0.81951416  0.02670704    -0.79300
O736        O  0.66152113  0.82583570  0.94198943    -0.89600
C737        C  0.77466168  0.76525113  0.14026516     0.84300
O738        O  0.62009449  0.76559093  0.93196912    -0.67800
O739        O  0.80373521  0.67891454  0.05379209    -0.87100
C740        C  0.61518054  0.76122909  0.97932140     0.85100
C741        C  0.67796057  0.83509028  0.98871544     1.06700
H742        H  0.72049889  0.71996571  0.03114291     0.38500
O743        O  0.75162515  0.73391518  0.03151027    -1.09700
O744        O  0.83582992  0.75334356  0.98020267    -0.66400
Ni745      Ni  0.76138163  0.73763466  0.96162585     1.26300
O746        O  0.65525842  0.76389757  0.01915954    -0.66600
O747        O  0.78839299  0.69587987  0.96696285    -0.78900
C748        C  0.72317298  0.74872497  0.85165500     0.84500
O749        O  0.76463422  0.74309552  0.88911738    -0.66100
Ni750      Ni  0.80698533  0.71717621  0.08854684     1.27400
Ni751      Ni  0.73083923  0.77661520  0.03086729     1.26100
H752        H  0.76296531  0.79471204  0.95531311     0.39100
C753        C  0.49387414  0.75859372  0.03976464    -0.12300
C754        C  0.45060432  0.75164293  0.99680013     0.04700
C755        C  0.46307174  0.74571239  0.94898689    -0.07500
C756        C  0.51654410  0.74769457  0.94489698    -0.08300
C757        C  0.55963144  0.75508992  0.98776513    -0.02800
C758        C  0.54719361  0.76022334  0.03594897     0.04000
N759        N  0.58783394  0.76824553  0.08142542     0.66500
H760        H  0.48659146  0.76294925  0.07736235     0.15400
H761        H  0.52420285  0.74357749  0.90735158     0.15100
N762        N  0.42233270  0.73694505  0.90420934     0.74200
O763        O  0.59605553  0.79699580  0.09111723    -0.39300
O764        O  0.60499637  0.74681517  0.11785270    -0.39200
O765        O  0.40400540  0.75790871  0.86735609    -0.39900
O766        O  0.41463167  0.70798073  0.89572161    -0.40000
C767        C  0.99887078  0.75832048  0.96271463    -0.12300
C768        C  0.03727977  0.73967123  0.99966564     0.04700
C769        C  0.02247378  0.72482451  0.04466553    -0.07500
C770        C  0.97058542  0.72795071  0.05073269    -0.08300
C771        C  0.93170281  0.74607585  0.01321159    -0.02800
C772        C  0.94726439  0.76193703  0.96923541     0.04000
N773        N  0.91219676  0.78281041  0.93167676     0.66500
H774        H  0.00917181  0.77088675  0.92850119     0.15400
H775        H  0.96043466  0.71511596  0.08484589     0.15100
N776        N  0.05868293  0.70541788  0.08380989     0.74200
O777        O  0.91279392  0.81175170  0.93989932    -0.39300
O778        O  0.89175296  0.77453825  0.88563172    -0.39200
O779        O  0.08225387  0.71643653  0.12712085    -0.39900
O780        O  0.05717629  0.67580620  0.08046220    -0.40000
C781        C  0.34213682  0.64068392  0.96516274    -0.12300
C782        C  0.34913928  0.64899767  0.01729796     0.04700
C783        C  0.38409565  0.63069302  0.05865475    -0.07500
C784        C  0.41033945  0.60502792  0.04716761    -0.08300
C785        C  0.40307817  0.59668680  0.99490702    -0.02800
C786        C  0.36839852  0.61521604  0.95364880     0.04000
N787        N  0.35939250  0.60891164  0.89938267     0.66500
H788        H  0.31693250  0.65460030  0.93225461     0.15400
H789        H  0.43553253  0.59099346  0.07991225     0.15100
N790        N  0.39288858  0.63726530  0.11278119     0.74200
O791        O  0.31768266  0.59350331  0.87783125    -0.39300
O792        O  0.38507108  0.62512367  0.87051082    -0.39200
O793        O  0.36653218  0.62156513  0.14155078    -0.39900
O794        O  0.43458434  0.65266118  0.13439440    -0.40000
C795        C  0.61281037  0.91475341  0.97138767    -0.12300
C796        C  0.60445607  0.91688826  0.02184376     0.04700
C797        C  0.62165726  0.89222228  0.06174871    -0.07500
C798        C  0.64752374  0.86640484  0.05075434    -0.08300
C799        C  0.65578485  0.86435473  0.00010089    -0.02800
C800        C  0.63803773  0.88899094  0.96020460     0.04000
N801        N  0.64741215  0.88908472  0.90873951     0.66500
H802        H  0.60147795  0.93391220  0.94057930     0.15400
H803        H  0.65987576  0.84743904  0.08166288     0.15100
N804        N  0.61047412  0.89208288  0.11241751     0.74200
O805        O  0.60933346  0.88222662  0.87020256    -0.39300
O806        O  0.68874315  0.90321699  0.89974551    -0.39200
O807        O  0.56812802  0.87839313  0.11969656    -0.39900
O808        O  0.64728419  0.89903937  0.15195664    -0.40000
C809        C  0.81450927  0.00274204  0.03912625    -0.12300
C810        C  0.82067476  0.00139733  0.98754799     0.04700
C811        C  0.77372761  0.00422992  0.94523095    -0.07500
C812        C  0.72360335  0.00871843  0.95514628    -0.08300
C813        C  0.71757205  0.01056998  0.00669295    -0.02800
C814        C  0.76447787  0.00703423  0.04907716     0.04000
N815        N  0.76247154  0.00701140  0.10309477     0.66500
H816        H  0.84923925  0.00113534  0.07254703     0.15400
H817        H  0.68888751  0.01039373  0.92189545     0.15100
N818        N  0.77553397  0.00192193  0.89166798     0.74200
O819        O  0.75562398  0.98098205  0.12877643    -0.39300
O820        O  0.75828436  0.46768034  0.11726751    -0.39200
O821        O  0.76286160  0.97574821  0.87159762    -0.39900
O822        O  0.79368117  0.57028753  0.90369569    -0.40000
C823        C  0.20510301  0.99506380  0.97305214    -0.12300
C824        C  0.19690078  0.99567142  0.02393830     0.04700
C825        C  0.24301122  0.99671270  0.06720162    -0.07500
C826        C  0.29470042  0.99800163  0.05838652    -0.08300
C827        C  0.30253471  0.99720232  0.00725321    -0.02800
C828        C  0.25632913  0.99498685  0.96452569     0.04000
N829        N  0.25444954  0.49169415  0.91313331     0.66500
H830        H  0.16652653  0.49513395  0.94048051     0.15400
H831        H  0.32893661  0.99957509  0.09204079     0.15100
N832        N  0.23855721  0.99571467  0.12060238     0.74200
O833        O  0.26033024  0.96262401  0.89904969    -0.39300
O834        O  0.24752635  0.51565793  0.87978168    -0.39200
O835        O  0.24389088  0.96965180  0.14895303    -0.39900
O836        O  0.23512024  0.52838245  0.13824187    -0.40000
C837        C  0.86401198  0.59462735  0.02031726    -0.12300
C838        C  0.90563184  0.60159703  0.99522634     0.04700
C839        C  0.91094138  0.63227642  0.97068421    -0.07500
C840        C  0.87493248  0.65536032  0.97182537    -0.08300
C841        C  0.83367348  0.64845831  0.99739564    -0.02800
C842        C  0.82806690  0.61774105  0.02150515     0.04000
N843        N  0.78457329  0.60922499  0.04481146     0.66500
H844        H  0.85798801  0.57070265  0.03724275     0.15400
H845        H  0.88088284  0.67928920  0.95485231     0.15100
N846        N  0.95428428  0.64084221  0.94713594     0.74200
O847        O  0.74128022  0.59881778  0.01623141    -0.39300
O848        O  0.79319152  0.60504099  0.09458713    -0.39200
O849        O  0.94512361  0.64665098  0.89752974    -0.39900
O850        O  0.99864319  0.64947870  0.97609474    -0.40000
C851        C  0.17698664  0.84745784  0.02253089    -0.12300
C852        C  0.15629529  0.83427597  0.97391229     0.04700
C853        C  0.11356326  0.84951471  0.93659301    -0.07500
C854        C  0.09064638  0.87582132  0.94987491    -0.08300
C855        C  0.10940167  0.88787021  0.99976114    -0.02800
C856        C  0.15442021  0.87386108  0.03566274     0.04000
N857        N  0.17830621  0.88608040  0.08563491     0.66500
H858        H  0.21005530  0.83650467  0.05167902     0.15400
H859        H  0.05717025  0.88650902  0.92096273     0.15100
N860        N  0.09097394  0.83782920  0.88595719     0.74200
O861        O  0.16360531  0.87470352  0.12617242    -0.39300
O862        O  0.22145004  0.90228908  0.09134517    -0.39200
O863        O  0.04660950  0.82280516  0.87789609    -0.39900
O864        O  0.10823279  0.84900431  0.84682340    -0.40000
C865        C  0.76662312  0.73121623  0.72842663    -0.12300
C866        C  0.73064087  0.74896789  0.68836635     0.04700
C867        C  0.68960864  0.76434636  0.70144080    -0.07500
C868        C  0.68661074  0.76277331  0.75445257    -0.08300
C869        C  0.72407060  0.74608938  0.79533958    -0.02800
C870        C  0.76345520  0.72932578  0.78135253     0.04000
N871        N  0.79976310  0.70961676  0.81990045     0.66500
H872        H  0.79773806  0.71880535  0.71855612     0.15400
H873        H  0.65594631  0.77582566  0.76381688     0.15100
N874        N  0.65244799  0.78304245  0.66198288     0.74200
O875        O  0.78688811  0.68075970  0.82856050    -0.39300
O876        O  0.84810864  0.71852907  0.83458024    -0.39200
O877        O  0.60532068  0.77236647  0.64531488    -0.39900
O878        O  0.66265258  0.81232963  0.65373408    -0.40000
C879        C  0.81805304  0.75958072  0.29201398    -0.12300
C880        C  0.76892939  0.76279609  0.30355611     0.04700
C881        C  0.72408630  0.77080505  0.26188505    -0.07500
C882        C  0.72816889  0.77376725  0.20949414    -0.08300
C883        C  0.77611789  0.76798951  0.19697899    -0.02800
C884        C  0.82206484  0.76192608  0.23923736     0.04000
N885        N  0.87270485  0.75718809  0.22957825     0.66500
H886        H  0.85284395  0.75361024  0.32386218     0.15400
H887        H  0.69255461  0.77909211  0.17833999     0.15100
N888        N  0.67354721  0.77528436  0.27203112     0.74200
O889        O  0.90563321  0.78038024  0.23043916    -0.39300
O890        O  0.88884621  0.72930409  0.23282766    -0.39200
O891        O  0.65838611  0.80315022  0.27159705    -0.39900
O892        O  0.63982196  0.75239170  0.26878116    -0.40000
C893        C  0.20999673  0.73376492  0.70366114    -0.12300
C894        C  0.25901443  0.72306305  0.70034400     0.04700
C895        C  0.29909612  0.71621400  0.74717565    -0.07500
C896        C  0.28968339  0.72044725  0.79615876    -0.08300
C897        C  0.24128341  0.73219145  0.79977670    -0.02800
C898        C  0.20080162  0.73853315  0.75263972     0.04000
N899        N  0.15002621  0.74958069  0.75345974     0.66500
H900        H  0.17926212  0.73963540  0.66779298     0.15400
H901        H  0.32084036  0.71471969  0.83157369     0.15100
N902        N  0.34921267  0.70439260  0.74584828     0.74200
O903        O  0.14174655  0.77896724  0.74546829    -0.39300
O904        O  0.11082657  0.73008680  0.74942137    -0.39200
O905        O  0.38975171  0.72295720  0.75229763    -0.39900
O906        O  0.35538717  0.67477769  0.75114757    -0.40000
C907        C  0.22800236  0.75921097  0.26772785    -0.12300
C908        C  0.24188905  0.73161664  0.30145474     0.04700
C909        C  0.25821642  0.70509784  0.28180790    -0.07500
C910        C  0.26101904  0.70667033  0.22899588    -0.08300
C911        C  0.24681763  0.73418574  0.19477207    -0.02800
C912        C  0.22981433  0.76066406  0.21454504     0.04000
N913        N  0.21605133  0.78954066  0.18188289     0.66500
H914        H  0.21520657  0.77965625  0.28266057     0.15400
H915        H  0.27407591  0.68611008  0.21461973     0.15100
N916        N  0.27297210  0.67660389  0.31517800     0.74200
O917        O  0.16763770  0.79474204  0.16009097    -0.39300
O918        O  0.25002066  0.81229148  0.18478016    -0.39200
O919        O  0.24108054  0.65278805  0.31051569    -0.39900
O920        O  0.32126179  0.67288319  0.33928459    -0.40000
C921        C  0.48655272  0.70640097  0.52025165    -0.12300
C922        C  0.44433699  0.71955854  0.48100646     0.04700
C923        C  0.45386275  0.73630304  0.43490778    -0.07500
C924        C  0.50630972  0.74252891  0.43184229    -0.08300
C925        C  0.54858936  0.73202120  0.47387965    -0.02800
C926        C  0.53861590  0.71247654  0.51706962     0.04000
N927        N  0.58061654  0.69781523  0.55714403     0.66500
H928        H  0.47918873  0.69269617  0.55502602     0.15400
H929        H  0.51410009  0.75622227  0.39726942     0.15100
N930        N  0.41138177  0.74875698  0.39270814     0.74200
O931        O  0.60168565  0.71206729  0.59791497    -0.39300
O932        O  0.58520342  0.66818345  0.55894833    -0.39200
O933        O  0.40606350  0.77841507  0.38478542    -0.39900
O934        O  0.38903101  0.73139939  0.35622477    -0.40000
C935        C  0.02667226  0.76991589  0.48210828    -0.12300
C936        C  0.06072785  0.74717998  0.51341335     0.04700
C937        C  0.04339809  0.72655219  0.55178155    -0.07500
C938        C  0.99169059  0.72861358  0.55727246    -0.08300
C939        C  0.95669155  0.75016910  0.52377685    -0.02800
C940        C  0.97475705  0.77148012  0.48671564     0.04000
N941        N  0.94092346  0.79481443  0.45346088     0.66500
H942        H  0.03991046  0.78585399  0.45267495     0.15400
H943        H  0.97787508  0.71206783  0.58557122     0.15100
N944        N  0.07540098  0.70116806  0.58098075     0.74200
O945        O  0.94423312  0.82294659  0.46649550    -0.39300
O946        O  0.91723476  0.78918344  0.40663162    -0.39200
O947        O  0.09428324  0.70185719  0.63030109    -0.39900
O948        O  0.07466534  0.67541389  0.56011995    -0.40000
C949        C  0.53725957  0.99033277  0.73873331    -0.12300
C950        C  0.48791675  0.99102946  0.70095204     0.04700
C951        C  0.45771223  0.53402898  0.71502558    -0.07500
C952        C  0.46153369  0.53461601  0.76918203    -0.08300
C953        C  0.49577623  0.00270325  0.80747960    -0.02800
C954        C  0.54150443  0.99554492  0.79157696     0.04000
N955        N  0.59310617  0.99510210  0.82771760     0.66500
H956        H  0.57323981  0.98620636  0.72687294     0.15400
H957        H  0.44587302  0.55466293  0.78249456     0.15100
N958        N  0.43321681  0.55966958  0.67910134     0.74200
O959        O  0.61157080  0.96885512  0.84983223    -0.39300
O960        O  0.62448403  0.01893238  0.82682155    -0.39200
O961        O  0.38299772  0.56043636  0.66473444    -0.39900
O962        O  0.46063547  0.58453038  0.67200415    -0.40000
C963        C  0.46098997  0.00551557  0.21225804    -0.12300
C964        C  0.51095111  0.99871304  0.20528039     0.04700
C965        C  0.55246372  0.99004478  0.25062776    -0.07500
C966        C  0.54270994  0.98752914  0.30108496    -0.08300
C967        C  0.49213158  0.99314974  0.30740183    -0.02800
C968        C  0.45134078  0.00280834  0.26258942     0.04000
N969        N  0.40050109  0.01127565  0.26775271     0.66500
H970        H  0.42881860  0.01275357  0.17839282     0.15400
H971        H  0.57546103  0.48414084  0.33686973     0.15100
N972        N  0.59875485  0.47617482  0.24740827     0.74200
O973        O  0.39332683  0.03969952  0.27437524    -0.39300
O974        O  0.36063499  0.99264951  0.25400674    -0.39200
O975        O  0.64093131  0.00568981  0.25652411    -0.39900
O976        O  0.59602010  0.44623469  0.24875108    -0.40000
C977        C  0.37188685  0.83276087  0.46702092    -0.12300
C978        C  0.35312522  0.82269573  0.51188272     0.04700
C979        C  0.35912291  0.84409719  0.55155356    -0.07500
C980        C  0.38227440  0.87468885  0.54513394    -0.08300
C981        C  0.40058897  0.88490079  0.49986928    -0.02800
C982        C  0.39616307  0.86299337  0.46110110     0.04000
N983        N  0.41796237  0.87040012  0.41632045     0.66500
H984        H  0.36940163  0.81658606  0.43685913     0.15400
H985        H  0.38417224  0.89091894  0.57519439     0.15100
N986        N  0.33978042  0.83578333  0.59763952     0.74200
O987        O  0.46653383  0.86549681  0.42096097    -0.39300
O988        O  0.38695070  0.87433170  0.37060673    -0.39200
O989        O  0.37250095  0.82928583  0.64170956    -0.39900
O990        O  0.29231957  0.84161401  0.59646221    -0.40000
C991        C  0.64647840  0.60430247  0.55086203    -0.12300
C992        C  0.60793491  0.59127305  0.50911328     0.04700
C993        C  0.60161775  0.60655890  0.45743057    -0.07500
C994        C  0.63158554  0.63447550  0.44922862    -0.08300
C995        C  0.66856334  0.64802881  0.49134284    -0.02800
C996        C  0.67660958  0.63208505  0.54251089     0.04000
N997        N  0.71546512  0.64359354  0.58658786     0.66500
H998        H  0.65393918  0.59274983  0.59068739     0.15400
H999        H  0.62398696  0.64637344  0.40961721     0.15100
N1000       N  0.56443853  0.59455453  0.41268146     0.74200
O1001       O  0.70051905  0.65829383  0.61969639    -0.39300
O1002       O  0.76174668  0.63276481  0.59886149    -0.39200
O1003       O  0.51956439  0.60700020  0.39532195    -0.39900
O1004       O  0.58060230  0.57701146  0.38404982    -0.40000
C1005       C  0.93872405  0.98376709  0.76703776    -0.12300
C1006       C  0.98781680  0.98793306  0.80431667     0.04700
C1007       C  0.03472768  0.49481114  0.78759875    -0.07500
C1008       C  0.03319147  0.49508378  0.73393191    -0.08300
C1009       C  0.98570558  0.48810909  0.69617294    -0.02800
C1010       C  0.93436981  0.98884051  0.71240739     0.04000
N1011       N  0.88330350  0.98444938  0.67656379     0.66500
H1012       H  0.90313965  0.97684604  0.78036496     0.15400
H1013       H  0.06974533  0.50099478  0.72181000     0.15100
N1014       N  0.08387182  0.50330247  0.82363283     0.74200
O1015       O  0.86950790  0.95733608  0.66039623    -0.39300
O1016       O  0.84793286  0.00438677  0.67295928    -0.39200
O1017       O  0.12054649  0.48353004  0.83738901    -0.39900
O1018       O  0.09470156  0.53212763  0.83184521    -0.40000
C1019       C  0.95073166  0.48890550  0.20406201    -0.12300
C1020       C  0.01974268  0.00481184  0.20185344     0.04700
C1021       C  0.06085966  0.99901702  0.24893712    -0.07500
C1022       C  0.05087069  0.00167671  0.29859222    -0.08300
C1023       C  0.00023874  0.00929281  0.30251643    -0.02800
C1024       C  0.94154153  0.48527792  0.25470385     0.04000
N1025       N  0.88935140  0.47518200  0.25953644     0.66500
H1026       H  0.91851613  0.48307473  0.17046682     0.15400
H1027       H  0.08199155  0.99602093  0.33427623     0.15100
N1028       N  0.11215287  0.98905505  0.24757724     0.74200
O1029       O  0.85539705  0.49577040  0.25754413    -0.39300
O1030       O  0.86996691  0.00522734  0.24912981    -0.39200
O1031       O  0.10658677  0.54669768  0.23790819    -0.39900
O1032       O  0.12115116  0.95976037  0.25280042    -0.40000
C1033       C  0.75372412  0.96835524  0.47385235    -0.12300
C1034       C  0.78194756  0.99628480  0.49169254     0.04700
C1035       C  0.76168372  0.01543680  0.52244029    -0.07500
C1036       C  0.71411096  0.00614834  0.53547013    -0.08300
C1037       C  0.68573663  0.97858252  0.51691121    -0.02800
C1038       C  0.70529833  0.95966324  0.48558783     0.04000
N1039       N  0.67701545  0.93149973  0.46624626     0.66500
H1040       H  0.76945546  0.95301472  0.45100072     0.15400
H1041       H  0.69762496  0.02155647  0.55765311     0.15100
N1042       N  0.78624148  0.04554643  0.53663866     0.74200
O1043       O  0.63748395  0.43750660  0.43177356    -0.39300
O1044       O  0.69066964  0.90489057  0.49067487    -0.39200
O1045       O  0.79822738  0.56574876  0.51125693    -0.39900
O1046       O  0.81498973  0.04815483  0.58289998    -0.40000
C1047       C  0.24452219  0.49905831  0.45537148    -0.12300
C1048       C  0.28526103  0.98307716  0.50598421     0.04700
C1049       C  0.24236971  0.96332780  0.48078020    -0.07500
C1050       C  0.19162248  0.96698740  0.48766010    -0.08300
C1051       C  0.18396152  0.47699504  0.50733768    -0.02800
C1052       C  0.19329759  0.48986749  0.45853733     0.04000
N1053       N  0.15099056  0.49591138  0.41234697     0.66500
H1054       H  0.25072640  0.50897739  0.41754677     0.15400
H1055       H  0.15854698  0.95225110  0.46745575     0.15100
N1056       N  0.24986846  0.93914955  0.44898692     0.74200
O1057       O  0.13475851  0.52380975  0.39925588    -0.39300
O1058       O  0.13127399  0.47367690  0.38372410    -0.39200
O1059       O  0.27644937  0.91513138  0.47032470    -0.39900
O1060       O  0.23219227  0.94253622  0.39926843    -0.40000
C1061       C  0.85689909  0.89488231  0.45033972    -0.12300
C1062       C  0.89612895  0.90835705  0.49054903     0.04700
C1063       C  0.91078075  0.89134792  0.54082147    -0.07500
C1064       C  0.88582631  0.86169936  0.55000363    -0.08300
C1065       C  0.84615208  0.84806894  0.50970386    -0.02800
C1066       C  0.83183537  0.86535040  0.45933675     0.04000
N1067       N  0.79116565  0.85373495  0.41683084     0.66500
H1068       H  0.84387584  0.90796554  0.41187640     0.15400
H1069       H  0.89893744  0.84890573  0.58867465     0.15100
N1070       N  0.95220150  0.90341432  0.58241024     0.74200
O1071       O  0.74341370  0.86089117  0.41147185    -0.39300
O1072       O  0.80408645  0.84265113  0.37898442    -0.39200
O1073       O  0.94108295  0.91295057  0.62239433    -0.39900
O1074       O  0.99964275  0.90587963  0.57811013    -0.40000
C1075       C  0.13790919  0.58706336  0.54336091    -0.12300
C1076       C  0.09134391  0.57716352  0.50658641     0.04700
C1077       C  0.06993354  0.59825895  0.46190753    -0.07500
C1078       C  0.09502357  0.62810863  0.45508744    -0.08300
C1079       C  0.14149699  0.63803171  0.49204673    -0.02800
C1080       C  0.16277668  0.61692241  0.53674433     0.04000
N1081       N  0.20996873  0.62506368  0.57576598     0.66500
H1082       H  0.15598320  0.57133742  0.57765869     0.15400
H1083       H  0.07692356  0.64393345  0.42094111     0.15100
N1084       N  0.02179256  0.59041716  0.42388789     0.74200
O1085       O  0.20580858  0.63540815  0.61810144    -0.39300
O1086       O  0.25425147  0.61524628  0.57340715    -0.39200
O1087       O  0.97816405  0.60035822  0.42787661    -0.39900
O1088       O  0.02438528  0.58046879  0.38074001    -0.40000
loop_ 
_geom_bond_atom_site_label_1 
_geom_bond_atom_site_label_2 
_geom_bond_distance 
_geom_bond_site_symmetry_2 
_ccdc_geom_bond_type 
O1           Ni7   1.924       .  S
O1           C22   1.270       .  A
O2          Ni25   1.912       .  S
O2          C555   1.264       .  A
O3           H26   0.967       .  S
O3          Ni19   1.918   1_655  S
O3         Ni551   1.919   1_545  S
O3         Ni569   1.921       .  S
C4           O13   1.274       .  A
C4          O565   1.274       .  A
C4          C507   1.455       .  S
O5          Ni24   1.912       .  S
O5           C11   1.267   1_455  A
O6          Ni24   1.911       .  S
O6            C8   1.270       .  A
Ni7          O10   1.913       .  S
Ni7          O12   1.908       .  S
Ni7         O547   1.905       .  S
C8           O18   1.274       .  A
C8          C532   1.502       .  S
O9         Ni569   1.891       .  S
O9          C559   1.266       .  A
O10          C15   1.274       .  A
C11         O546   1.266   1_545  A
C11         C465   1.484   1_545  S
O12          C14   1.270       .  A
O13         Ni24   1.903   1_565  S
C14          O20   1.275       .  A
C14         C518   1.492       .  S
C15         O553   1.267       .  A
C15         C490   1.448       .  S
H16          O17   0.965       .  S
O17         Ni25   1.898   1_455  S
O17        Ni563   1.899       .  S
O17        Ni568   1.901       .  S
O18         Ni19   1.939       .  S
Ni19         O23   1.912       .  S
Ni19        O565   1.900   1_545  S
Ni19        O561   1.899   1_545  S
O20         Ni25   1.945       .  S
O21        Ni563   1.907       .  S
O21         C548   1.277       .  A
C22         O567   1.273   1_655  A
C22         C479   1.487       .  S
O23         C566   1.268   1_455  A
Ni24        O561   1.906   1_545  S
Ni25        O553   1.880       .  S
Ni25        O547   1.904       .  S
O27         Ni33   1.900       .  S
O27          C48   1.265       .  A
O28         Ni51   1.912       .  S
O28          C37   1.268       .  A
O29         H596   0.967       .  S
O29         Ni33   1.914       .  S
O29         Ni51   1.919       .  S
O29         Ni45   1.927       .  S
C30          O47   1.275       .  A
C30          O39   1.276       .  A
C30         C493   1.444       .  S
O31         Ni50   1.911   1_545  S
O31         C581   1.267   1_545  A
O32         Ni50   1.912   1_545  S
O32          C34   1.269       .  A
Ni33         O36   1.900       .  S
Ni33         O38   1.909       .  S
C34          O44   1.275       .  A
C34         C448   1.506       .  S
O35         Ni51   1.895       .  S
O35          C41   1.264       .  A
O36          C41   1.264       .  A
C37         O575   1.268       .  A
C37         C406   1.465       .  S
O38          C40   1.273       .  A
O39        Ni594   1.906       .  S
C40          O46   1.284       .  A
C40         C437   1.496       .  S
C41         C504   1.453       .  S
H42          O43   0.966       .  S
O43         Ni51   1.885       .  S
O43         Ni45   1.883       .  S
O43        Ni594   1.897       .  S
O44        Ni589   1.945   1_545  S
Ni45         O47   1.897       .  S
Ni45        O588   1.939       .  S
Ni45        O593   1.902       .  S
O46         Ni51   1.961       .  S
C48         O593   1.266       .  A
C48         C423   1.463       .  S
O49        Ni589   1.898       .  S
O49         C592   1.267       .  A
Ni50        O583   1.900       .  S
Ni50        O587   1.894       .  S
H52         O573   0.967   1_545  S
O53         Ni59   1.927       .  S
O53          C74   1.270       .  A
O54         Ni77   1.913       .  S
O54          C63   1.270       .  A
O55          H78   0.966       .  S
O55         Ni59   1.891       .  S
O55         Ni77   1.897       .  S
O55         Ni71   1.891       .  S
C56          O73   1.269       .  A
C56          O65   1.274       .  A
C56         C378   1.448       .  S
O57         Ni76   1.907       .  S
O57          C63   1.264       .  A
O58         Ni76   1.902       .  S
O58          C60   1.267       .  A
Ni59         O62   1.908       .  S
Ni59         O64   1.906       .  S
C60          O70   1.280       .  A
C60         C434   1.497       .  S
O61         Ni77   1.900       .  S
O61          C67   1.277       .  A
O62          C67   1.278       .  A
C63         C350   1.474       .  S
O64          C66   1.269       .  A
O65         Ni76   1.902       .  S
C66          O72   1.275       .  A
C66         C535   1.502       .  S
C67         C392   1.455       .  S
H68          O69   0.965       .  S
O69         Ni77   1.906       .  S
O69         Ni71   1.897       .  S
O69         Ni76   1.895       .  S
O70         Ni71   1.945       .  S
Ni71         O75   1.915       .  S
Ni71         O73   1.887       .  S
O72         Ni77   1.943       .  S
C74          O75   1.271       .  A
C74         C364   1.478       .  S
O79         Ni85   1.930       .  S
O79         C100   1.270       .  A
O80        Ni103   1.910       .  S
O80          C89   1.266       .  A
O81         H104   0.966       .  S
O81         Ni85   1.916       .  S
O81        Ni103   1.908       .  S
O81         Ni97   1.893       .  S
C82          O99   1.265       .  A
C82          O91   1.270       .  A
C82         C395   1.459       .  S
O83        Ni102   1.924       .  S
O83          C89   1.268       .  A
O84        Ni102   1.913       .  S
O84          C86   1.271       .  A
Ni85         O88   1.906       .  S
Ni85         O90   1.915       .  S
C86          O96   1.277       .  A
C86         C521   1.495       .  S
O87        Ni103   1.879       .  S
O87          C93   1.266       .  A
O88          C93   1.272       .  A
C89         C322   1.474       .  S
O90          C92   1.273       .  A
O91        Ni102   1.908       .  S
C92          O98   1.277       .  A
C92         C451   1.506       .  S
C93         C381   1.440       .  S
H94          O95   0.967       .  S
O95        Ni103   1.909       .  S
O95         Ni97   1.920       .  S
O95        Ni102   1.925       .  S
O96         Ni97   1.945       .  S
Ni97        O101   1.912       .  S
Ni97         O99   1.888       .  S
O98        Ni103   1.945       .  S
C100        O101   1.266       .  A
C100        C336   1.490       .  S
O105       Ni111   1.920   1_565  S
O105        C670   1.271       .  A
O106       Ni129   1.896       .  S
O106        C115   1.271   1_645  A
O107        H130   0.975       .  S
O107       Ni111   1.903   1_455  S
O107       Ni129   1.885   1_456  S
O107       Ni667   1.914   1_545  S
C108        O125   1.280   1_554  A
C108        O117   1.280       .  A
C108        C311   1.494       .  S
O109       Ni128   1.938       .  S
O109        C659   1.276       .  A
O110       Ni128   1.923       .  S
O110        C112   1.272       .  A
Ni111       O114   1.915       .  S
Ni111       O116   1.922       .  S
C112        O122   1.280   1_554  A
C112        C280   1.514       .  S
O113       Ni129   1.921       .  S
O113        C119   1.282   1_554  A
O114        C119   1.278       .  A
C115        O653   1.275       .  A
C115       C1020   1.492   1_565  S
O116        C662   1.270       .  A
O117       Ni128   1.937       .  S
C118        O660   1.272       .  A
C118        O668   1.283   1_556  A
C118        C266   1.521       .  S
C119        C294   1.480   1_556  S
H120        O121   0.952   1_655  S
O121       Ni123   1.890   1_554  S
O121       Ni128   1.911       .  S
O121       Ni673   1.922   1_455  S
O122       Ni123   1.946       .  S
Ni123       O127   1.905       .  S
Ni123       O125   1.914       .  S
Ni123       O651   1.916   1_455  S
O124       Ni129   1.960   1_565  S
O124        C662   1.284   1_564  A
C126        O127   1.270   1_655  A
C126        O649   1.273       .  A
C126        C462   1.477       .  S
Ni129       O665   1.924   1_645  S
O131       Ni137   1.928       .  S
O131        C152   1.272       .  A
O132       Ni155   1.907       .  S
O132        C685   1.268       .  A
O133        H156   0.967       .  S
O133       Ni681   1.920       .  S
O133       Ni699   1.903   1_554  S
O133       Ni693   1.941       .  S
C134        O151   1.291   1_556  A
C134        O143   1.277       .  A
C134        C283   1.519   1_556  S
O135       Ni154   1.932       .  S
O135        C141   1.277       .  A
O136       Ni154   1.922       .  S
O136        C138   1.274       .  A
Ni137       O140   1.940       .  S
Ni137       O142   1.906       .  S
Ni137       O677   1.919       .  S
C138        O148   1.279   1_556  A
C138        C241   1.507       .  S
O139       Ni155   1.954       .  S
O139        C145   1.285   1_556  A
O140        C145   1.277       .  A
C141        O676   1.271   1_545  A
C141        C953   1.485       .  S
O142        C144   1.268       .  A
O143       Ni698   1.919       .  S
C144        O150   1.273   1_554  A
C144        C252   1.489       .  S
C145        C269   1.517   1_554  S
H146        O147   0.966       .  S
O147       Ni155   1.934       .  S
O147       Ni149   1.890   1_556  S
O147       Ni698   1.901       .  S
O148       Ni693   1.937       .  S
Ni149       O151   1.974       .  S
Ni149       O692   1.936       .  S
Ni149       O697   1.896       .  S
Ni149       O677   1.945       .  S
O150       Ni155   1.921       .  S
C152        O697   1.271       .  A
C152        C420   1.481       .  S
O153       Ni693   1.905       .  S
O153        C696   1.271       .  A
Ni154       O687   1.929       .  S
Ni154       O691   1.901   1_545  S
Ni155       O677   1.903   1_556  S
O157       Ni163   1.930       .  S
O157        C178   1.273       .  A
O158       Ni181   1.908       .  S
O158        C167   1.271       .  A
O159        H182   0.966       .  S
O159       Ni163   1.900       .  S
O159       Ni181   1.895   1_554  S
O159       Ni175   1.927       .  S
C160        O177   1.284   1_556  A
C160        O169   1.276       .  A
C160        C224   1.514   1_556  S
O161       Ni180   1.916       .  S
O161        C167   1.269       .  A
O162       Ni180   1.909       .  S
O162        C164   1.269       .  A
Ni163       O166   1.919       .  S
Ni163       O168   1.917       .  S
C164        O174   1.274   1_556  A
C164        C308   1.494       .  S
O165       Ni181   1.963       .  S
O165        C171   1.289   1_556  A
O166        C171   1.279       .  A
C167        C353   1.469       .  S
O168        C170   1.271       .  A
O169       Ni180   1.922       .  S
C170        O176   1.277   1_554  A
C170        C238   1.506       .  S
C171        C210   1.511   1_554  S
H172        O173   0.967       .  S
O173       Ni181   1.945       .  S
O173       Ni175   1.909   1_556  S
O173       Ni180   1.915       .  S
O174       Ni175   1.926       .  S
Ni175       O179   1.908       .  S
Ni175       O177   1.955       .  S
O176       Ni181   1.936       .  S
C178        O179   1.268       .  A
C178        C367   1.472       .  S
O183       Ni189   1.940       .  S
O183        C204   1.274       .  A
O184       Ni207   1.914       .  S
O184        C193   1.272       .  A
O185        H208   0.962       .  S
O185       Ni189   1.913       .  S
O185       Ni207   1.911   1_556  S
O185       Ni201   1.923       .  S
C186        O203   1.279   1_554  A
C186        O195   1.276       .  A
C186        C297   1.475       .  S
O187       Ni206   1.928       .  S
O187        C193   1.270       .  A
O188       Ni206   1.920       .  S
O188        C190   1.274       .  A
Ni189       O192   1.927       .  S
Ni189       O194   1.912       .  S
C190        O200   1.280   1_554  A
C190        C227   1.515       .  S
O191       Ni207   1.915       .  S
O191        C197   1.277   1_554  A
O192        C197   1.278       .  A
C193        C339   1.490       .  S
O194        C196   1.271       .  A
O195       Ni206   1.918       .  S
C196        O202   1.281   1_556  A
C196        C213   1.510       .  S
C197        C255   1.488   1_556  S
H198        O199   0.972       .  S
O199       Ni207   1.917       .  S
O199       Ni201   1.899   1_554  S
O199       Ni206   1.914       .  S
O200       Ni201   1.951       .  S
Ni201       O205   1.916       .  S
Ni201       O203   1.912       .  S
O202       Ni207   1.955       .  S
C204        O205   1.271       .  A
C204        C325   1.495       .  S
C209        C210   1.410   1_554  A
C209        C214   1.403       .  A
C209        H216   1.083       .  S
C210        C211   1.416       .  A
C211        C212   1.414       .  A
C211        N218   1.426       .  S
C212        C213   1.413       .  A
C212        H217   1.083       .  S
C213        C214   1.414   1_556  A
C214        N215   1.425       .  S
N215        O219   1.262       .  A
N215        O220   1.261       .  A
N218        O222   1.262       .  A
N218        O221   1.261       .  A
C223        C224   1.413   1_556  A
C223        C228   1.408   1_455  A
C223        H230   1.083       .  S
C224        C225   1.414       .  A
C225        C226   1.414   1_455  A
C225        N232   1.428       .  S
C226        C227   1.415       .  A
C226        H231   1.083       .  S
C227        C228   1.416   1_554  A
C228        N229   1.429       .  S
N229        O233   1.262       .  A
N229        O234   1.261       .  A
N232        O236   1.262       .  A
N232        O235   1.262       .  A
C237        C238   1.410   1_556  A
C237        C242   1.409       .  A
C237        H244   1.084       .  S
C238        C239   1.418       .  A
C239        C240   1.406       .  A
C239        N246   1.429       .  S
C240        C241   1.409   1_554  A
C240        H245   1.083       .  S
C241        C242   1.419       .  A
C242        N243   1.429       .  S
N243        O247   1.262       .  A
N243        O248   1.262       .  A
N246        O250   1.262       .  A
N246        O249   1.262       .  A
C251        C252   1.408   1_556  A
C251        C256   1.396       .  A
C251        H258   1.083       .  S
C252        C253   1.414       .  A
C253        C254   1.403       .  A
C253        N260   1.429       .  S
C254        C255   1.409       .  A
C254        H259   1.083       .  S
C255        C256   1.412   1_554  A
C256        N257   1.429       .  S
N257        O261   1.262       .  A
N257        O262   1.262       .  A
N260        O264   1.262       .  A
N260        O263   1.262       .  A
C265        C266   1.405   1_554  A
C265        C270   1.412       .  A
C265        H272   1.084       .  S
C266        C267   1.428       .  A
C267        C268   1.415       .  A
C267        N274   1.428       .  S
C268        C269   1.404       .  A
C268        H273   1.084       .  S
C269        C270   1.424   1_556  A
C270        N271   1.429       .  S
N271        O275   1.262       .  A
N271        O820   1.262       .  A
N274        O822   1.262       .  A
N274        O277   1.262       .  A
O276        N815   1.262       .  A
O278        N818   1.262       .  A
C279        C280   1.404   1_556  A
C279        C284   1.403       .  A
C279        H830   1.083       .  S
C280        C281   1.422       .  A
C281        C282   1.419       .  A
C281        N288   1.428       .  S
C282        C283   1.411       .  A
C282        H287   1.083       .  S
C283        C284   1.424   1_554  A
C284        N829   1.429       .  S
N285        C828   1.429       .  S
N285        O833   1.262       .  A
N285        O290   1.262   1_565  A
H286        C823   1.083       .  S
N288        O836   1.262       .  A
N288        O291   1.262       .  A
O289        N829   1.262       .  A
O292        N832   1.262   1_545  A
C293        C294   1.407       .  A
C293        C298   1.399       .  A
C293        H300   1.084       .  S
C294        C295   1.413   1_554  A
C295        C296   1.395       .  A
C295        N302   1.429       .  S
C296        C297   1.401   1_556  A
C296        H301   1.080       .  S
C297        C298   1.410       .  A
C298        N299   1.429       .  S
N299        O303   1.262       .  A
N299        O304   1.262       .  A
N302        O306   1.262       .  A
N302        O305   1.262       .  A
C307        C308   1.406   1_554  A
C307        C312   1.402       .  A
C307        H314   1.083       .  S
C308        C309   1.417       .  A
C309        C310   1.400       .  A
C309        N316   1.429       .  S
C310        C311   1.405   1_556  A
C310        H315   1.084       .  S
C311        C312   1.418       .  A
C312        N313   1.429       .  S
N313        O317   1.262       .  A
N313        O318   1.262       .  A
N316        O320   1.262       .  A
N316        O319   1.262       .  A
C321        C322   1.398       .  A
C321        C326   1.401       .  A
C321        H328   1.084       .  S
C322        C323   1.408       .  A
C323        C324   1.405       .  A
C323        N330   1.430       .  S
C324        C325   1.410       .  A
C324        H329   1.084       .  S
C325        C326   1.416       .  A
C326        N327   1.428       .  S
N327        O331   1.262       .  A
N327        O332   1.262       .  A
N330        O334   1.262       .  A
N330        O333   1.262       .  A
C335        C336   1.408       .  A
C335        C340   1.408       .  A
C335        H342   1.084       .  S
C336        C337   1.413       .  A
C337        C338   1.397       .  A
C337        N344   1.429       .  S
C338        C339   1.400       .  A
C338        H343   1.076       .  S
C339        C340   1.414       .  A
C340        N341   1.428       .  S
N341        O345   1.262       .  A
N341        O346   1.262       .  A
N344        O348   1.262       .  A
N344        O347   1.262       .  A
C349        C350   1.401       .  A
C349        C354   1.398       .  A
C349        H356   1.084       .  S
C350        C351   1.417       .  A
C351        C352   1.395       .  A
C351        N358   1.430       .  S
C352        C353   1.395       .  A
C352        H357   1.080       .  S
C353        C354   1.412       .  A
C354        N355   1.429       .  S
N355        O359   1.262       .  A
N355        O360   1.262       .  A
N358        O362   1.262       .  A
N358        O361   1.262       .  A
C363        C364   1.402       .  A
C363        C368   1.403       .  A
C363        H370   1.084       .  S
C364        C365   1.415       .  A
C365        C366   1.399       .  A
C365        N372   1.429       .  S
C366        C367   1.398       .  A
C366        H371   1.084       .  S
C367        C368   1.411       .  A
C368        N369   1.428       .  S
N369        O373   1.262       .  A
N369        O374   1.262       .  A
N372        O376   1.262       .  A
N372        O375   1.262       .  A
C377        C378   1.397       .  A
C377        C382   1.387       .  A
C377        H384   1.084       .  S
C378        C379   1.413       .  A
C379        C380   1.386       .  A
C379        N386   1.430       .  S
C380        C381   1.392       .  A
C380        H385   1.085       .  S
C381        C382   1.407       .  A
C382        N383   1.428       .  S
N383        O387   1.261       .  A
N383        O388   1.261       .  A
N386        O390   1.262       .  A
N386        O389   1.262       .  A
C391        C392   1.405       .  A
C391        C396   1.389   1_455  A
C391        H398   1.085       .  S
C392        C393   1.403       .  A
C393        C394   1.390   1_455  A
C393        N400   1.429       .  S
C394        C395   1.407       .  A
C394        H399   1.084       .  S
C395        C396   1.405       .  A
C396        N397   1.429       .  S
N397        O401   1.262       .  A
N397        O402   1.262       .  A
N400        O404   1.262       .  A
N400        O403   1.262       .  A
C405        C406   1.398       .  A
C405        C410   1.399       .  A
C405        H412   1.084       .  S
C406        C951   1.406       .  A
C407        C408   1.406   1_565  A
C407        C950   1.409       .  A
C407        N414   1.428       .  S
C408        C953   1.409       .  A
C408        H413   1.084       .  S
C409        C685   1.482       .  S
C409        C410   1.415       .  A
C409        C952   1.406       .  A
C410        N411   1.429       .  S
N411        O415   1.262       .  A
N411        O416   1.262       .  A
N414        O418   1.261   1_565  A
N414        O417   1.262       .  A
C419        C420   1.404       .  A
C419        C424   1.392       .  A
C419        H426   1.084       .  S
C420        C421   1.420       .  A
C421        C422   1.398       .  A
C421        N972   1.429       .  S
C422        C423   1.397       .  A
C422        H971   1.084       .  S
C423        C424   1.408       .  A
C424        N425   1.430       .  S
N425        O429   1.262       .  A
N425        O430   1.262       .  A
H427        C966   1.084       .  S
N428        C965   1.430       .  S
N428        O432   1.262       .  A
N428        O975   1.262   1_565  A
O431        N972   1.262       .  A
C433        C434   1.403       .  A
C433        C438   1.403       .  A
C433        H440   1.084       .  S
C434        C435   1.421       .  A
C435        C436   1.403       .  A
C435        N442   1.430       .  S
C436        C437   1.404       .  A
C436        H441   1.084       .  S
C437        C438   1.419       .  A
C438        N439   1.428       .  S
N439        O443   1.262       .  A
N439        O444   1.262       .  A
N442        O446   1.262       .  A
N442        O445   1.262       .  A
C447        C448   1.410       .  A
C447        C452   1.405       .  A
C447        H454   1.083       .  S
C448        C449   1.416       .  A
C449        C450   1.409       .  A
C449        N456   1.429       .  S
C450        C451   1.412       .  A
C450        H455   1.083       .  S
C451        C452   1.416       .  A
C452        N453   1.429       .  S
N453        O457   1.262       .  A
N453        O458   1.261       .  A
N456        O460   1.262       .  A
N456        O459   1.262       .  A
C461        C462   1.404       .  A
C461        C466   1.402       .  A
C461        H468   1.084       .  S
C462       C1007   1.410   1_655  A
C463        C464   1.399   1_565  A
C463       C1006   1.412   1_455  A
C463        N470   1.429   1_565  S
C464        C465   1.406   1_445  A
C464        H469   1.084       .  S
C465       C1010   1.412       .  A
C466       C1009   1.414       .  A
C466        N467   1.429       .  S
N467        O471   1.262       .  A
N467        O472   1.261       .  A
N470        O474   1.262       .  A
N470        O473   1.262   1_545  A
C475        C480   1.394       .  A
C475       C1020   1.405   1_655  A
C475        H482   1.084       .  S
C476        C659   1.477       .  S
C476        C477   1.409       .  A
C476       C1019   1.404   1_455  A
C477        C478   1.396       .  A
C477        N484   1.429       .  S
C478        C479   1.401   1_455  A
C478        H483   1.073       .  S
C479       C1024   1.417       .  A
C480       C1023   1.411   1_655  A
C480        N481   1.430       .  S
N481        O485   1.262       .  A
N481       O1030   1.262       .  A
N484        O488   1.262       .  A
N484       O1031   1.262       .  A
O486       N1025   1.262       .  A
O487       N1028   1.262   1_545  A
C489        C490   1.402       .  A
C489        C494   1.387       .  A
C489        H496   1.085       .  S
C490        C491   1.405       .  A
C491        C492   1.389       .  A
C491        N498   1.431       .  S
C492        C493   1.402       .  A
C492        H497   1.085       .  S
C493        C494   1.402       .  A
C494        N495   1.428       .  S
N495       O1043   1.262       .  A
N495        O500   1.262       .  A
N498        O502   1.261       .  A
N498       O1045   1.262       .  A
O499       N1039   1.262       .  A
O501       N1042   1.262       .  A
C503        C508   1.388       .  A
C503       C1048   1.401   1_545  A
C503        H510   1.083       .  S
C504        C505   1.405       .  A
C504       C1047   1.394       .  A
C505        C506   1.397       .  A
C505        N512   1.429       .  S
C506       C1051   1.410       .  A
C506        H511   1.083       .  S
C507        C508   1.408   1_565  A
C507       C1050   1.399       .  A
C508        N509   1.431       .  S
N509        O513   1.262       .  A
N509        O514   1.262       .  A
N512        O516   1.262       .  A
N512        O515   1.261       .  A
C517        C518   1.406       .  A
C517        C522   1.403       .  A
C517        H524   1.084       .  S
C518        C519   1.412       .  A
C519        C520   1.409       .  A
C519        N526   1.430       .  S
C520        C521   1.411       .  A
C520        H525   1.084       .  S
C521        C522   1.412       .  A
C522        N523   1.429       .  S
N523        O527   1.262       .  A
N523        O528   1.262       .  A
N526        O530   1.262       .  A
N526        O529   1.262       .  A
C531        C532   1.410       .  A
C531        C536   1.406       .  A
C531        H538   1.083       .  S
C532        C533   1.416       .  A
C533        C534   1.404       .  A
C533        N540   1.429       .  S
C534        C535   1.409       .  A
C534        H539   1.083       .  S
C535        C536   1.416       .  A
C536        N537   1.429       .  S
N537        O541   1.262       .  A
N537        O542   1.262       .  A
N540        O544   1.262       .  A
N540        O543   1.262       .  A
O545       Ni551   1.914       .  S
O545        C566   1.268   1_565  A
O546       Ni569   1.921   1_565  S
O547        H570   0.967       .  S
O547       Ni563   1.897   1_655  S
C548        O557   1.275       .  A
C548       C1051   1.477       .  S
O549       Ni568   1.916       .  S
O549        C555   1.267   1_455  A
O550       Ni568   1.908       .  S
O550        C552   1.269       .  A
Ni551       O554   1.908       .  S
Ni551       O556   1.911       .  S
C552        O562   1.274       .  A
C552       C1076   1.496       .  S
O554        C559   1.268   1_565  A
C555       C1009   1.481       .  S
O556        C558   1.272       .  A
O557       Ni568   1.904       .  S
C558        O564   1.276       .  A
C558       C1062   1.488       .  S
C559       C1034   1.457   1_545  S
H560        O561   0.965       .  S
O561       Ni569   1.897   1_465  S
O562       Ni563   1.938       .  S
Ni563       O567   1.912       .  S
O564       Ni569   1.947   1_565  S
C566       C1023   1.477   1_655  S
O571       Ni577   1.929       .  S
O571        C592   1.273       .  A
O572       Ni595   1.929       .  S
O572        C581   1.272       .  A
O573       Ni577   1.907       .  S
O573       Ni595   1.913       .  S
O573       Ni589   1.910       .  S
C574        O591   1.276       .  A
C574        O583   1.274       .  A
C574       C1037   1.444       .  S
O575       Ni594   1.922       .  S
O576       Ni594   1.908       .  S
O576        C578   1.269       .  A
Ni577       O580   1.923       .  S
Ni577       O582   1.912       .  S
C578        O588   1.274       .  A
C578        C992   1.503       .  S
O579       Ni595   1.878       .  S
O579        C585   1.266       .  A
O580        C585   1.273       .  A
C581        C950   1.479       .  S
O582        C584   1.272       .  A
C584        O590   1.284       .  A
C584        C981   1.505       .  S
C585       C1048   1.464       .  S
H586        O587   0.966       .  S
O587       Ni595   1.894       .  S
O587       Ni589   1.893       .  S
Ni589       O591   1.907       .  S
O590       Ni595   1.967       .  S
C592        C967   1.473       .  S
O597       Ni603   1.933       .  S
O597        C618   1.269       .  A
O598       Ni621   1.898       .  S
O598        C607   1.267       .  A
O599        H622   0.966       .  S
O599       Ni603   1.907       .  S
O599       Ni621   1.901       .  S
O599       Ni615   1.886       .  S
C600        O617   1.262       .  A
C600        O609   1.273       .  A
C600        C922   1.448       .  S
O601       Ni620   1.922       .  S
O601        C607   1.269       .  A
O602       Ni620   1.912       .  S
O602        C604   1.270       .  A
Ni603       O606   1.908       .  S
Ni603       O608   1.908       .  S
C604        O614   1.281       .  A
C604        C978   1.500       .  S
O605       Ni621   1.900       .  S
O605        C611   1.272       .  A
O606        C611   1.276       .  A
C607        C894   1.469       .  S
O608        C610   1.269       .  A
O609       Ni620   1.909       .  S
C610        O616   1.273       .  A
C610       C1079   1.496       .  S
C611        C936   1.455       .  S
H612        O613   0.966       .  S
O613       Ni621   1.903       .  S
O613       Ni615   1.915       .  S
O613       Ni620   1.910       .  S
O614       Ni615   1.957       .  S
Ni615       O619   1.905       .  S
Ni615       O617   1.880       .  S
O616       Ni621   1.934       .  S
C618        O619   1.264       .  A
C618        C908   1.467       .  S
O623       Ni629   1.922       .  S
O623        C644   1.270       .  A
O624       Ni647   1.920       .  S
O624        C633   1.270       .  A
O625        H648   0.966       .  S
O625       Ni629   1.906       .  S
O625       Ni647   1.906       .  S
O625       Ni641   1.900       .  S
C626        O643   1.274       .  A
C626        O635   1.276       .  A
C626        C939   1.458       .  S
O627       Ni646   1.930       .  S
O627        C633   1.271       .  A
O628       Ni646   1.919       .  S
O628        C630   1.272       .  A
Ni629       O632   1.910       .  S
Ni629       O634   1.914       .  S
C630        O640   1.275       .  A
C630       C1065   1.502       .  S
O631       Ni647   1.890       .  S
O631        C637   1.273       .  A
O632        C637   1.273       .  A
C633        C866   1.478       .  S
O634        C636   1.272       .  A
O635       Ni646   1.912       .  S
C636        O642   1.275       .  A
C636        C995   1.495       .  S
C637        C925   1.444       .  S
H638        O639   0.967       .  S
O639       Ni647   1.903       .  S
O639       Ni641   1.903       .  S
O639       Ni646   1.903       .  S
O640       Ni641   1.934       .  S
Ni641       O645   1.916       .  S
Ni641       O643   1.900       .  S
O642       Ni647   1.943       .  S
C644        O645   1.269       .  A
C644        C880   1.474       .  S
O649       Ni655   1.923       .  S
O650       Ni673   1.894       .  S
O650        C659   1.269   1_655  A
O651        H674   0.974   1_655  S
O651       Ni655   1.897       .  S
O651       Ni673   1.884   1_556  S
C652        O669   1.276   1_554  A
C652        O661   1.278       .  A
C652        C855   1.493   1_554  S
O653       Ni672   1.943       .  S
O654       Ni672   1.916       .  S
O654        C656   1.271       .  A
Ni655       O658   1.916       .  S
Ni655       O660   1.929       .  S
C656        O666   1.282   1_554  A
C656        C824   1.511       .  S
O657       Ni673   1.923       .  S
O657        C663   1.281   1_554  A
O658        C663   1.278       .  A
O661       Ni672   1.935       .  S
C662        C810   1.520       .  S
C663        C838   1.468       .  S
H664        O665   0.958   1_655  S
O665       Ni667   1.907   1_554  S
O665       Ni672   1.921       .  S
O666       Ni667   1.951       .  S
Ni667       O671   1.916       .  S
Ni667       O669   1.912       .  S
O668       Ni673   1.958       .  S
C670        O671   1.270   1_655  A
C670       C1006   1.484       .  S
O675       Ni681   1.929   1_565  S
O675        C696   1.272   1_565  A
O676       Ni699   1.908   1_565  S
O677        H700   0.967       .  S
C678        O695   1.287   1_546  A
C678        O687   1.278       .  A
C678        C827   1.512   1_546  S
O679       Ni698   1.920       .  S
O679        C685   1.272       .  A
O680       Ni698   1.915       .  S
O680        C682   1.270       .  A
Ni681       O684   1.930       .  S
Ni681       O686   1.918   1_545  S
C682        O692   1.276   1_556  A
C682        C785   1.503       .  S
O683       Ni699   1.965       .  S
O683        C689   1.288   1_556  A
O684        C689   1.277       .  A
O686        C688   1.271       .  A
C688        O694   1.269   1_554  A
C688        C796   1.477       .  S
C689        C813   1.524       .  S
H690        O691   0.966       .  S
O691       Ni699   1.933   1_565  S
O691       Ni693   1.890   1_566  S
Ni693       O695   1.955   1_545  S
O694       Ni699   1.908   1_565  S
C696        C964   1.483   1_545  S
O701       Ni707   1.934       .  S
O701        C722   1.276       .  A
O702       Ni725   1.892       .  S
O702        C711   1.269       .  A
O703        H726   0.966       .  S
O703       Ni707   1.905       .  S
O703       Ni725   1.889   1_554  S
O703       Ni719   1.932       .  S
C704        O721   1.283   1_556  A
C704        O713   1.277       .  A
C704        C768   1.511       .  S
O705       Ni724   1.936       .  S
O705        C711   1.275       .  A
O706       Ni724   1.915       .  S
O706        C708   1.272       .  A
Ni707       O710   1.930       .  S
Ni707       O712   1.922       .  S
C708        O718   1.274   1_556  A
C708        C852   1.490       .  S
O709       Ni725   1.967       .  S
O709        C715   1.288   1_556  A
O710        C715   1.281       .  A
C711        C897   1.483       .  S
O712        C714   1.271       .  A
O713       Ni724   1.933       .  S
C714        O720   1.275   1_554  A
C714        C782   1.502       .  S
C715        C754   1.520   1_554  S
H716        O717   0.967       .  S
O717       Ni725   1.937       .  S
O717       Ni719   1.902   1_556  S
O717       Ni724   1.917       .  S
O718       Ni719   1.924       .  S
Ni719       O723   1.906       .  S
Ni719       O721   1.950       .  S
O720       Ni725   1.928       .  S
C722        O723   1.269       .  A
C722        C911   1.480       .  S
O727       Ni733   1.944       .  S
O727        C748   1.278       .  A
O728       Ni751   1.909       .  S
O728        C737   1.271       .  A
O729        H752   0.963       .  S
O729       Ni733   1.906       .  S
O729       Ni751   1.903   1_556  S
O729       Ni745   1.914       .  S
C730        O747   1.278   1_554  A
C730        O739   1.277       .  A
C730        C841   1.467   1_554  S
O731       Ni750   1.932       .  S
O731        C737   1.271       .  A
O732       Ni750   1.916       .  S
O732        C734   1.272       .  A
Ni733       O736   1.935       .  S
Ni733       O738   1.925       .  S
C734        O744   1.283   1_554  A
C734        C771   1.514       .  S
O735       Ni751   1.908       .  S
O735        C741   1.276   1_554  A
O736        C741   1.280       .  A
C737        C883   1.492       .  S
O738        C740   1.274       .  A
O739       Ni750   1.919       .  S
C740        O746   1.279   1_556  A
C740        C757   1.518       .  S
C741        C799   1.481   1_556  S
H742        O743   0.971       .  S
O743       Ni751   1.911       .  S
O743       Ni745   1.902   1_554  S
O743       Ni750   1.900       .  S
O744       Ni745   1.961       .  S
Ni745       O749   1.914       .  S
Ni745       O747   1.917       .  S
O746       Ni751   1.958       .  S
C748        O749   1.273       .  A
C748        C869   1.496       .  S
C753        C754   1.412   1_554  A
C753        C758   1.410       .  A
C753        H760   1.083       .  S
C754        C755   1.419       .  A
C755        C756   1.416       .  A
C755        N762   1.426       .  S
C756        C757   1.412       .  A
C756        H761   1.083       .  S
C757        C758   1.419   1_556  A
C758        N759   1.428       .  S
N759        O763   1.261       .  A
N759        O764   1.262       .  A
N762        O766   1.262       .  A
N762        O765   1.262       .  A
C767        C768   1.414   1_655  A
C767        C772   1.411       .  A
C767        H774   1.082   1_655  S
C768        C769   1.412   1_556  A
C769        C770   1.410   1_455  A
C769        N776   1.428       .  S
C770        C771   1.417       .  A
C770        H775   1.083       .  S
C771        C772   1.414   1_554  A
C772        N773   1.429       .  S
N773        O777   1.262       .  A
N773        O778   1.261       .  A
N776        O780   1.262       .  A
N776        O779   1.262       .  A
C781        C782   1.407   1_556  A
C781        C786   1.403       .  A
C781        H788   1.084       .  S
C782        C783   1.418       .  A
C783        C784   1.409       .  A
C783        N790   1.429       .  S
C784        C785   1.410   1_554  A
C784        H789   1.084       .  S
C785        C786   1.418       .  A
C786        N787   1.429       .  S
N787        O791   1.262       .  A
N787        O792   1.262       .  A
N790        O794   1.262       .  A
N790        O793   1.262       .  A
C795        C796   1.405   1_556  A
C795        C800   1.394       .  A
C795        H802   1.083       .  S
C796        C797   1.409       .  A
C797        C798   1.403       .  A
C797        N804   1.429       .  S
C798        C799   1.408       .  A
C798        H803   1.083       .  S
C799        C800   1.410   1_554  A
C800        N801   1.429       .  S
N801        O805   1.262       .  A
N801        O806   1.262       .  A
N804        O808   1.262       .  A
N804        O807   1.262       .  A
C809        C810   1.407   1_554  A
C809        C814   1.413       .  A
C809        H816   1.084       .  S
C810        C811   1.424       .  A
C811        C812   1.416       .  A
C811        N818   1.428       .  S
C812        C813   1.408   1_556  A
C812        H817   1.081       .  S
C813        C814   1.426       .  A
C814        N815   1.429       .  S
N815        O819   1.262   1_545  A
N818        O821   1.262   1_545  A
C823        C824   1.405   1_556  A
C823        C828   1.403       .  A
C824        C825   1.424       .  A
C825        C826   1.415       .  A
C825        N832   1.429       .  S
C826        C827   1.409       .  A
C826        H831   1.084       .  S
C827        C828   1.421   1_554  A
N829        O834   1.262       .  A
N832        O835   1.262       .  A
C837        C838   1.405   1_554  A
C837        C842   1.397       .  A
C837        H844   1.085       .  S
C838        C839   1.407       .  A
C839        C840   1.397       .  A
C839        N846   1.429       .  S
C840        C841   1.405       .  A
C840        H845   1.085       .  S
C841        C842   1.406   1_556  A
C842        N843   1.428       .  S
N843        O847   1.262       .  A
N843        O848   1.262       .  A
N846        O850   1.262       .  A
N846        O849   1.262       .  A
C851        C852   1.405   1_554  A
C851        C856   1.400       .  A
C851        H858   1.084       .  S
C852        C853   1.416       .  A
C853        C854   1.403       .  A
C853        N860   1.429       .  S
C854        C855   1.406       .  A
C854        H859   1.084       .  S
C855        C856   1.417   1_556  A
C856        N857   1.429       .  S
N857        O861   1.262       .  A
N857        O862   1.262       .  A
N860        O864   1.262       .  A
N860        O863   1.262       .  A
C865        C866   1.401       .  A
C865        C870   1.404       .  A
C865        H872   1.084       .  S
C866        C867   1.408       .  A
C867        C868   1.405       .  A
C867        N874   1.429       .  S
C868        C869   1.410       .  A
C868        H873   1.084       .  S
C869        C870   1.416       .  A
C870        N871   1.429       .  S
N871        O875   1.262       .  A
N871        O876   1.261       .  A
N874        O878   1.262       .  A
N874        O877   1.262       .  A
C879        C880   1.400       .  A
C879        C884   1.406       .  A
C879        H886   1.084       .  S
C880        C881   1.408       .  A
C881        C882   1.396       .  A
C881        N888   1.429       .  S
C882        C883   1.405       .  A
C882        H887   1.083       .  S
C883        C884   1.420       .  A
C884        N885   1.429       .  S
N885        O889   1.262       .  A
N885        O890   1.262       .  A
N888        O892   1.262       .  A
N888        O891   1.262       .  A
C893        C894   1.400       .  A
C893        C898   1.398       .  A
C893        H900   1.084       .  S
C894        C895   1.408       .  A
C895        C896   1.395       .  A
C895        N902   1.429       .  S
C896        C897   1.405       .  A
C896        H901   1.081       .  S
C897        C898   1.416       .  A
C898        N899   1.429       .  S
N899        O903   1.262       .  A
N899        O904   1.262       .  A
N902        O906   1.262       .  A
N902        O905   1.262       .  A
C907        C908   1.400       .  A
C907        C912   1.401       .  A
C907        H914   1.084       .  S
C908        C909   1.407       .  A
C909        C910   1.399       .  A
C909        N916   1.429       .  S
C910        C911   1.404       .  A
C910        H915   1.084       .  S
C911        C912   1.415       .  A
C912        N913   1.429       .  S
N913        O917   1.262       .  A
N913        O918   1.262       .  A
N916        O920   1.262       .  A
N916        O919   1.262       .  A
C921        C922   1.396       .  A
C921        C926   1.383       .  A
C921        H928   1.085       .  S
C922        C923   1.410       .  A
C923        C924   1.392       .  A
C923        N930   1.430       .  S
C924        C925   1.399       .  A
C924        H929   1.084       .  S
C925        C926   1.406       .  A
C926        N927   1.428       .  S
N927        O931   1.261       .  A
N927        O932   1.261       .  A
N930        O934   1.261       .  A
N930        O933   1.261       .  A
C935        C936   1.397       .  A
C935        C940   1.389   1_455  A
C935        H942   1.084       .  S
C936        C937   1.411       .  A
C937        C938   1.394   1_455  A
C937        N944   1.430       .  S
C938        C939   1.399       .  A
C938        H943   1.084       .  S
C939        C940   1.411       .  A
C940        N941   1.430       .  S
N941        O945   1.262       .  A
N941        O946   1.262       .  A
N944        O948   1.262       .  A
N944        O947   1.261       .  A
C949        C950   1.403       .  A
C949        C954   1.398       .  A
C949        H956   1.084       .  S
C951        C952   1.399       .  A
C951        N958   1.429       .  S
C952        H957   1.084       .  S
C953        C954   1.411   1_545  A
C954        N955   1.428       .  S
N955        O959   1.262       .  A
N955        O960   1.262   1_565  A
N958        O962   1.262       .  A
N958        O961   1.262       .  A
C963        C964   1.404   1_545  A
C963        C968   1.396       .  A
C963        H970   1.084       .  S
C964        C965   1.418       .  A
C965        C966   1.401       .  A
C966        C967   1.400       .  A
C967        C968   1.409   1_565  A
C968        N969   1.429       .  S
N969        O973   1.262       .  A
N969        O974   1.262   1_545  A
N972        O976   1.262       .  A
C977        C978   1.404       .  A
C977        C982   1.406       .  A
C977        H984   1.081       .  S
C978        C979   1.416       .  A
C979        C980   1.409       .  A
C979        N986   1.429       .  S
C980        C981   1.409       .  A
C980        H985   1.083       .  S
C981        C982   1.419       .  A
C982        N983   1.429       .  S
N983        O987   1.262       .  A
N983        O988   1.262       .  A
N986        O990   1.262       .  A
N986        O989   1.262       .  A
C991        C992   1.412       .  A
C991        C996   1.405       .  A
C991        H998   1.083       .  S
C992        C993   1.417       .  A
C993        C994   1.406       .  A
C993       N1000   1.429       .  S
C994        C995   1.408       .  A
C994        H999   1.084       .  S
C995        C996   1.412       .  A
C996        N997   1.429       .  S
N997       O1001   1.262       .  A
N997       O1002   1.262       .  A
N1000      O1004   1.262       .  A
N1000      O1003   1.262       .  A
C1005      C1006   1.406       .  A
C1005      C1010   1.402       .  A
C1005      H1012   1.084       .  S
C1007      C1008   1.395       .  A
C1007      N1014   1.429       .  S
C1008      C1009   1.405   1_455  A
C1008      H1013   1.084       .  S
C1010      N1011   1.428       .  S
N1011      O1015   1.262       .  A
N1011      O1016   1.261   1_565  A
N1014      O1018   1.262       .  A
N1014      O1017   1.262       .  A
C1019      C1024   1.399       .  A
C1019      H1026   1.084       .  S
C1020      C1021   1.420   1_545  A
C1021      C1022   1.405   1_565  A
C1021      N1028   1.429       .  S
C1022      C1023   1.401       .  A
C1022      H1027   1.084   1_545  S
C1024      N1025   1.430       .  S
N1025      O1029   1.262       .  A
N1028      O1032   1.262       .  A
C1033      C1034   1.408       .  A
C1033      C1038   1.390       .  A
C1033      H1040   1.084       .  S
C1034      C1035   1.404   1_565  A
C1035      C1036   1.389       .  A
C1035      N1042   1.430       .  S
C1036      C1037   1.402   1_545  A
C1036      H1041   1.085       .  S
C1037      C1038   1.399       .  A
C1038      N1039   1.429       .  S
N1039      O1044   1.262       .  A
N1042      O1046   1.261       .  A
C1047      C1052   1.384       .  A
C1047      H1054   1.085       .  S
C1048      C1049   1.413       .  A
C1049      C1050   1.393       .  A
C1049      N1056   1.431       .  S
C1050      H1055   1.084       .  S
C1051      C1052   1.414       .  A
C1052      N1053   1.423       .  S
N1053      O1057   1.262       .  A
N1053      O1058   1.262       .  A
N1056      O1060   1.262       .  A
N1056      O1059   1.262       .  A
C1061      C1062   1.404       .  A
C1061      C1066   1.403       .  A
C1061      H1068   1.084       .  S
C1062      C1063   1.410       .  A
C1063      C1064   1.407       .  A
C1063      N1070   1.431       .  S
C1064      C1065   1.414       .  A
C1064      H1069   1.083       .  S
C1065      C1066   1.417       .  A
C1066      N1067   1.428       .  S
N1067      O1071   1.262       .  A
N1067      O1072   1.262       .  A
N1070      O1074   1.262       .  A
N1070      O1073   1.262       .  A
C1075      C1076   1.410       .  A
C1075      C1080   1.401       .  A
C1075      H1082   1.084       .  S
C1076      C1077   1.413       .  A
C1077      C1078   1.405       .  A
C1077      N1084   1.429       .  S
C1078      C1079   1.411       .  A
C1078      H1083   1.083       .  S
C1079      C1080   1.413       .  A
C1080      N1081   1.429       .  S
N1081      O1085   1.262       .  A
N1081      O1086   1.262       .  A
N1084      O1088   1.262       .  A
N1084      O1087   1.262   1_455  A
